<edges>
	<edge id="-E30" from="J19" to="J16" numLanes="1" shape="384162.71,5811978.57,0.00 384062.71,5812078.57,0.00" speed="13.89" />
	<edge id="A1A0" from="A1" to="A0" numLanes="1" shape="384462.71,5812478.57,0.00 384462.71,5812378.57,0.00" speed="13.89" />
	<edge id="-E32" from="J21" to="J18" numLanes="1" shape="384262.71,5812078.57,0.00 384162.71,5812178.57,0.00" speed="13.89" />
	<edge id="-E38" from="J25" to="J23" numLanes="1" shape="384462.71,5812178.57,0.00 384362.71,5812178.57,0.00" speed="13.89" />
	<edge id="-E37" from="E0" to="J20" numLanes="1" shape="384862.71,5812378.57,0.00 384862.71,5812278.57,0.00" speed="13.89" />
	<edge id="-E39" from="J26" to="J25" numLanes="1" shape="384562.71,5812178.57,0.00 384462.71,5812178.57,0.00" speed="13.89" />
	<edge id="-E34" from="J23" to="J22" numLanes="1" shape="384362.71,5812178.57,0.00 384362.71,5812078.57,0.00" speed="13.89" />
	<edge id="-E33" from="J22" to="J21" numLanes="1" shape="384362.71,5812078.57,0.00 384262.71,5812078.57,0.00" speed="13.89" />
	<edge id="-E36" from="J0" to="J24" numLanes="1" shape="384362.71,5812378.57,0.00 384362.71,5812278.57,0.00" speed="13.89" />
	<edge id="-E35" from="J24" to="J23" numLanes="1" shape="384362.71,5812278.57,0.00 384362.71,5812178.57,0.00" speed="13.89" />
	<edge id="E0D0" from="E0" to="D0" numLanes="1" shape="384862.71,5812378.57,0.00 384762.71,5812378.57,0.00" speed="13.89" />
	<edge id="B3A3" from="B3" to="A3" numLanes="1" shape="384562.71,5812678.57,0.00 384462.71,5812678.57,0.00" speed="13.89" />
	<edge id="B4C4" from="B4" to="C4" numLanes="1" shape="384562.71,5812778.57,0.00 384662.71,5812778.57,0.00" speed="13.89" />
	<edge id="A2B2" from="A2" to="B2" numLanes="1" shape="384462.71,5812578.57,0.00 384562.71,5812578.57,0.00" speed="13.89" />
	<edge id="-E41" from="J20" to="J27" numLanes="1" shape="384862.71,5812278.57,0.00 384762.71,5812278.57,0.00" speed="13.89" />
	<edge id="-E40" from="J27" to="J26" numLanes="1" shape="384762.71,5812278.57,0.00 384562.71,5812178.57,0.00" speed="13.89" />
	<edge id="A1B1" from="A1" to="B1" numLanes="1" shape="384462.71,5812478.57,0.00 384562.71,5812478.57,0.00" speed="13.89" />
	<edge id="-E43" from="J23" to="A0" numLanes="1" shape="384362.71,5812178.57,0.00 384462.71,5812378.57,0.00" speed="13.89" />
	<edge id="-E42" from="J28" to="D0" numLanes="1" shape="384462.71,5812278.57,0.00 384762.71,5812378.57,0.00" speed="13.89" />
	<edge id="-E49" from="J29" to="J27" numLanes="1" shape="384662.71,5812278.57,0.00 384762.71,5812278.57,0.00" speed="13.89" />
	<edge id="-E48" from="D0" to="J20" numLanes="1" shape="384762.71,5812378.57,0.00 384862.71,5812278.57,0.00" speed="13.89" />
	<edge id="-E45" from="J25" to="J28" numLanes="1" shape="384462.71,5812178.57,0.00 384462.71,5812278.57,0.00" speed="13.89" />
	<edge id="-E44" from="J28" to="J24" numLanes="1" shape="384462.71,5812278.57,0.00 384362.71,5812278.57,0.00" speed="13.89" />
	<edge id="-E47" from="J27" to="C0" numLanes="1" shape="384762.71,5812278.57,0.00 384662.71,5812378.57,0.00" speed="13.89" />
	<edge id="-E46" from="J29" to="A0" numLanes="1" shape="384662.71,5812278.57,0.00 384462.71,5812378.57,0.00" speed="13.89" />
	<edge id="E1E0" from="E1" to="E0" numLanes="1" shape="384862.71,5812478.57,0.00 384862.71,5812378.57,0.00" speed="13.89" />
	<edge id="E1E2" from="E1" to="E2" numLanes="1" shape="384862.71,5812478.57,0.00 384862.71,5812578.57,0.00" speed="13.89" />
	<edge id="B3B4" from="B3" to="B4" numLanes="1" shape="384562.71,5812678.57,0.00 384562.71,5812778.57,0.00" speed="13.89" />
	<edge id="A1A2" from="A1" to="A2" numLanes="1" shape="384462.71,5812478.57,0.00 384462.71,5812578.57,0.00" speed="13.89" />
	<edge id="B3B2" from="B3" to="B2" numLanes="1" shape="384562.71,5812678.57,0.00 384562.71,5812578.57,0.00" speed="13.89" />
	<edge id="-E52" from="J13" to="J23" numLanes="1" shape="384162.71,5812278.57,0.00 384362.71,5812178.57,0.00" speed="13.89" />
	<edge id="-E51" from="B0" to="J30" numLanes="1" shape="384562.71,5812378.57,0.00 384562.71,5812278.57,0.00" speed="13.89" />
	<edge id="A0A1" from="A0" to="A1" numLanes="1" shape="384462.71,5812378.57,0.00 384462.71,5812478.57,0.00" speed="13.89" />
	<edge id="B2B1" from="B2" to="B1" numLanes="1" shape="384562.71,5812578.57,0.00 384562.71,5812478.57,0.00" speed="13.89" />
	<edge id="-E54" from="J7" to="J31" numLanes="1" shape="384162.71,5812578.57,0.00 384262.71,5812578.57,0.00" speed="13.89" />
	<edge id="-E53" from="J31" to="A3" numLanes="1" shape="384262.71,5812578.57,0.00 384462.71,5812678.57,0.00" speed="13.89" />
	<edge id="-E50" from="J30" to="J26" numLanes="1" shape="384562.71,5812278.57,0.00 384562.71,5812178.57,0.00" speed="13.89" />
	<edge id="-E59" from="J14" to="J8" numLanes="1" shape="384062.71,5812378.57,0.00 384162.71,5812478.57,0.00" speed="13.89" />
	<edge id="-E56" from="J16" to="J17" numLanes="1" shape="384062.71,5812078.57,0.00 384062.71,5812178.57,0.00" speed="13.89" />
	<edge id="-E55" from="J3" to="J31" numLanes="1" shape="384362.71,5812478.57,0.00 384262.71,5812578.57,0.00" speed="13.89" />
	<edge id="-E58" from="J14" to="J11" numLanes="1" shape="384062.71,5812378.57,0.00 384062.71,5812478.57,0.00" speed="13.89" />
	<edge id="-E57" from="J6" to="J9" numLanes="1" shape="384162.71,5812378.57,0.00 384062.71,5812578.57,0.00" speed="13.89" />
	<edge id="C4B4" from="C4" to="B4" numLanes="1" shape="384662.71,5812778.57,0.00 384562.71,5812778.57,0.00" speed="13.89" />
	<edge id="B2A2" from="B2" to="A2" numLanes="1" shape="384562.71,5812578.57,0.00 384462.71,5812578.57,0.00" speed="13.89" />
	<edge id="B3C3" from="B3" to="C3" numLanes="1" shape="384562.71,5812678.57,0.00 384662.71,5812678.57,0.00" speed="13.89" />
	<edge id="-E63" from="B4" to="C3" numLanes="1" shape="384562.71,5812778.57,0.00 384662.71,5812678.57,0.00" speed="13.89" />
	<edge id="-E62" from="C3" to="D2" numLanes="1" shape="384662.71,5812678.57,0.00 384762.71,5812578.57,0.00" speed="13.89" />
	<edge id="B1A1" from="B1" to="A1" numLanes="1" shape="384562.71,5812478.57,0.00 384462.71,5812478.57,0.00" speed="13.89" />
	<edge id="B2C2" from="B2" to="C2" numLanes="1" shape="384562.71,5812578.57,0.00 384662.71,5812578.57,0.00" speed="13.89" />
	<edge id="A0B0" from="A0" to="B0" numLanes="1" shape="384462.71,5812378.57,0.00 384562.71,5812378.57,0.00" speed="13.89" />
	<edge id="-E61" from="D2" to="E1" numLanes="1" shape="384762.71,5812578.57,0.00 384862.71,5812478.57,0.00" speed="13.89" />
	<edge id="-E60" from="J20" to="J19" numLanes="2" shape="384862.71,5812278.57,0.00 384162.71,5811978.57,0.00" speed="23.89" />
	<edge id="E0E1" from="E0" to="E1" numLanes="1" shape="384862.71,5812378.57,0.00 384862.71,5812478.57,0.00" speed="13.89" />
	<edge id="C4C3" from="C4" to="C3" numLanes="1" shape="384662.71,5812778.57,0.00 384662.71,5812678.57,0.00" speed="13.89" />
	<edge id="B2B3" from="B2" to="B3" numLanes="1" shape="384562.71,5812578.57,0.00 384562.71,5812678.57,0.00" speed="13.89" />
	<edge id="C3C2" from="C3" to="C2" numLanes="1" shape="384662.71,5812678.57,0.00 384662.71,5812578.57,0.00" speed="13.89" />
	<edge id="B1B2" from="B1" to="B2" numLanes="1" shape="384562.71,5812478.57,0.00 384562.71,5812578.57,0.00" speed="13.89" />
	<edge id="B1B0" from="B1" to="B0" numLanes="1" shape="384562.71,5812478.57,0.00 384562.71,5812378.57,0.00" speed="13.89" />
	<edge id="E0" from="A0" to="J0" numLanes="1" shape="384462.71,5812378.57,0.00 384362.71,5812378.57,0.00" speed="13.89" />
	<edge id="E1" from="A4" to="J1" numLanes="1" shape="384462.71,5812778.57,0.00 384262.71,5812678.57,0.00" speed="13.89" />
	<edge id="E2" from="A1" to="J0" numLanes="1" shape="384462.71,5812478.57,0.00 384362.71,5812378.57,0.00" speed="13.89" />
	<edge id="E3" from="A2" to="J2" numLanes="1" shape="384462.71,5812578.57,0.00 384362.71,5812578.57,0.00" speed="13.89" />
	<edge id="E4" from="A3" to="J3" numLanes="1" shape="384462.71,5812678.57,0.00 384362.71,5812478.57,0.00" speed="13.89" />
	<edge id="E5" from="J3" to="J4" numLanes="1" shape="384362.71,5812478.57,0.00 384262.71,5812178.57,0.00" speed="13.89" />
	<edge id="E6" from="J0" to="J5" numLanes="1" shape="384362.71,5812378.57,0.00 384262.71,5812378.57,0.00" speed="13.89" />
	<edge id="E7" from="J5" to="J6" numLanes="1" shape="384262.71,5812378.57,0.00 384162.71,5812378.57,0.00" speed="13.89" />
	<edge id="E8" from="J1" to="J7" numLanes="1" shape="384262.71,5812678.57,0.00 384162.71,5812578.57,0.00" speed="13.89" />
	<edge id="E9" from="J7" to="J8" numLanes="1" shape="384162.71,5812578.57,0.00 384162.71,5812478.57,0.00" speed="13.89" />
	<edge id="C3B3" from="C3" to="B3" numLanes="1" shape="384662.71,5812678.57,0.00 384562.71,5812678.57,0.00" speed="13.89" />
	<edge id="C4D4" from="C4" to="D4" numLanes="1" shape="384662.71,5812778.57,0.00 384762.71,5812778.57,0.00" speed="13.89" />
	<edge id="C2B2" from="C2" to="B2" numLanes="1" shape="384662.71,5812578.57,0.00 384562.71,5812578.57,0.00" speed="13.89" />
	<edge id="C3D3" from="C3" to="D3" numLanes="1" shape="384662.71,5812678.57,0.00 384762.71,5812678.57,0.00" speed="13.89" />
	<edge id="B0A0" from="B0" to="A0" numLanes="1" shape="384562.71,5812378.57,0.00 384462.71,5812378.57,0.00" speed="13.89" />
	<edge id="B1C1" from="B1" to="C1" numLanes="1" shape="384562.71,5812478.57,0.00 384662.71,5812478.57,0.00" speed="13.89" />
	<edge id="C3C4" from="C3" to="C4" numLanes="1" shape="384662.71,5812678.57,0.00 384662.71,5812778.57,0.00" speed="13.89" />
	<edge id="C2C3" from="C2" to="C3" numLanes="1" shape="384662.71,5812578.57,0.00 384662.71,5812678.57,0.00" speed="13.89" />
	<edge id="D4D3" from="D4" to="D3" numLanes="1" shape="384762.71,5812778.57,0.00 384762.71,5812678.57,0.00" speed="13.89" />
	<edge id="C2C1" from="C2" to="C1" numLanes="1" shape="384662.71,5812578.57,0.00 384662.71,5812478.57,0.00" speed="13.89" />
	<edge id="B0B1" from="B0" to="B1" numLanes="1" shape="384562.71,5812378.57,0.00 384562.71,5812478.57,0.00" speed="13.89" />
	<edge id="D4C4" from="D4" to="C4" numLanes="1" shape="384762.71,5812778.57,0.00 384662.71,5812778.57,0.00" speed="13.89" />
	<edge id="D3C3" from="D3" to="C3" numLanes="1" shape="384762.71,5812678.57,0.00 384662.71,5812678.57,0.00" speed="13.89" />
	<edge id="D4E4" from="D4" to="E4" numLanes="1" shape="384762.71,5812778.57,0.00 384862.71,5812778.57,0.00" speed="13.89" />
	<edge id="C1B1" from="C1" to="B1" numLanes="1" shape="384662.71,5812478.57,0.00 384562.71,5812478.57,0.00" speed="13.89" />
	<edge id="C2D2" from="C2" to="D2" numLanes="1" shape="384662.71,5812578.57,0.00 384762.71,5812578.57,0.00" speed="13.89" />
	<edge id="B0C0" from="B0" to="C0" numLanes="1" shape="384562.71,5812378.57,0.00 384662.71,5812378.57,0.00" speed="13.89" />
	<edge id="D3D4" from="D3" to="D4" numLanes="1" shape="384762.71,5812678.57,0.00 384762.71,5812778.57,0.00" speed="13.89" />
	<edge id="C1C2" from="C1" to="C2" numLanes="1" shape="384662.71,5812478.57,0.00 384662.71,5812578.57,0.00" speed="13.89" />
	<edge id="D3D2" from="D3" to="D2" numLanes="1" shape="384762.71,5812678.57,0.00 384762.71,5812578.57,0.00" speed="13.89" />
	<edge id="C1C0" from="C1" to="C0" numLanes="1" shape="384662.71,5812478.57,0.00 384662.71,5812378.57,0.00" speed="13.89" />
	<edge id="E4D4" from="E4" to="D4" numLanes="1" shape="384862.71,5812778.57,0.00 384762.71,5812778.57,0.00" speed="13.89" />
	<edge id="D2C2" from="D2" to="C2" numLanes="1" shape="384762.71,5812578.57,0.00 384662.71,5812578.57,0.00" speed="13.89" />
	<edge id="D3E3" from="D3" to="E3" numLanes="1" shape="384762.71,5812678.57,0.00 384862.71,5812678.57,0.00" speed="13.89" />
	<edge id="C0B0" from="C0" to="B0" numLanes="1" shape="384662.71,5812378.57,0.00 384562.71,5812378.57,0.00" speed="13.89" />
	<edge id="C1D1" from="C1" to="D1" numLanes="1" shape="384662.71,5812478.57,0.00 384762.71,5812478.57,0.00" speed="13.89" />
	<edge id="E11" from="J5" to="J7" numLanes="1" shape="384262.71,5812378.57,0.00 384162.71,5812578.57,0.00" speed="13.89" />
	<edge id="E10" from="J8" to="J6" numLanes="1" shape="384162.71,5812478.57,0.00 384162.71,5812378.57,0.00" speed="13.89" />
	<edge id="E13" from="J1" to="J2" numLanes="1" shape="384262.71,5812678.57,0.00 384362.71,5812578.57,0.00" speed="13.89" />
	<edge id="E12" from="J3" to="J7" numLanes="1" shape="384362.71,5812478.57,0.00 384162.71,5812578.57,0.00" speed="13.89" />
	<edge id="E15" from="J4" to="J10" numLanes="1" shape="384262.71,5812178.57,0.00 384062.71,5812278.57,0.00" speed="13.89" />
	<edge id="E14" from="J7" to="J9" numLanes="1" shape="384162.71,5812578.57,0.00 384062.71,5812578.57,0.00" speed="13.89" />
	<edge id="E17" from="J11" to="J12" numLanes="1" shape="384062.71,5812478.57,0.00 383962.71,5812378.57,0.00" speed="13.89" />
	<edge id="E16" from="J9" to="J11" numLanes="1" shape="384062.71,5812578.57,0.00 384062.71,5812478.57,0.00" speed="13.89" />
	<edge id="E19" from="J6" to="J14" numLanes="1" shape="384162.71,5812378.57,0.00 384062.71,5812378.57,0.00" speed="13.89" />
	<edge id="E18" from="J5" to="J13" numLanes="1" shape="384262.71,5812378.57,0.00 384162.71,5812278.57,0.00" speed="13.89" />
	<edge id="D2D3" from="D2" to="D3" numLanes="1" shape="384762.71,5812578.57,0.00 384762.71,5812678.57,0.00" speed="13.89" />
	<edge id="E20" from="J14" to="J12" numLanes="1" shape="384062.71,5812378.57,0.00 383962.71,5812378.57,0.00" speed="13.89" />
	<edge id="C0C1" from="C0" to="C1" numLanes="1" shape="384662.71,5812378.57,0.00 384662.71,5812478.57,0.00" speed="13.89" />
	<edge id="D2D1" from="D2" to="D1" numLanes="1" shape="384762.71,5812578.57,0.00 384762.71,5812478.57,0.00" speed="13.89" />
	<edge id="E22" from="J13" to="J10" numLanes="1" shape="384162.71,5812278.57,0.00 384062.71,5812278.57,0.00" speed="13.89" />
	<edge id="E21" from="J12" to="J15" numLanes="1" shape="383962.71,5812378.57,0.00 383962.71,5812278.57,0.00" speed="13.89" />
	<edge id="E24" from="J15" to="J10" numLanes="1" shape="383962.71,5812278.57,0.00 384062.71,5812278.57,0.00" speed="13.89" />
	<edge id="E23" from="J13" to="J14" numLanes="1" shape="384162.71,5812278.57,0.00 384062.71,5812378.57,0.00" speed="13.89" />
	<edge id="E26" from="J10" to="J17" numLanes="1" shape="384062.71,5812278.57,0.00 384062.71,5812178.57,0.00" speed="13.89" />
	<edge id="E25" from="J15" to="J16" numLanes="1" shape="383962.71,5812278.57,0.00 384062.71,5812078.57,0.00" speed="13.89" />
	<edge id="E28" from="J18" to="J4" numLanes="1" shape="384162.71,5812178.57,0.00 384262.71,5812178.57,0.00" speed="13.89" />
	<edge id="E27" from="J17" to="J18" numLanes="1" shape="384062.71,5812178.57,0.00 384162.71,5812178.57,0.00" speed="13.89" />
	<edge id="E29" from="J16" to="J4" numLanes="1" shape="384062.71,5812078.57,0.00 384262.71,5812178.57,0.00" speed="13.89" />
	<edge id="E3D3" from="E3" to="D3" numLanes="1" shape="384862.71,5812678.57,0.00 384762.71,5812678.57,0.00" speed="13.89" />
	<edge id="E30" from="J16" to="J19" numLanes="1" shape="384062.71,5812078.57,0.00 384162.71,5811978.57,0.00" speed="13.89" />
	<edge id="D1C1" from="D1" to="C1" numLanes="1" shape="384762.71,5812478.57,0.00 384662.71,5812478.57,0.00" speed="13.89" />
	<edge id="D2E2" from="D2" to="E2" numLanes="1" shape="384762.71,5812578.57,0.00 384862.71,5812578.57,0.00" speed="13.89" />
	<edge id="E33" from="J21" to="J22" numLanes="1" shape="384262.71,5812078.57,0.00 384362.71,5812078.57,0.00" speed="13.89" />
	<edge id="E32" from="J18" to="J21" numLanes="1" shape="384162.71,5812178.57,0.00 384262.71,5812078.57,0.00" speed="13.89" />
	<edge id="C0D0" from="C0" to="D0" numLanes="1" shape="384662.71,5812378.57,0.00 384762.71,5812378.57,0.00" speed="13.89" />
	<edge id="E35" from="J23" to="J24" numLanes="1" shape="384362.71,5812178.57,0.00 384362.71,5812278.57,0.00" speed="13.89" />
	<edge id="E34" from="J22" to="J23" numLanes="1" shape="384362.71,5812078.57,0.00 384362.71,5812178.57,0.00" speed="13.89" />
	<edge id="E37" from="J20" to="E0" numLanes="1" shape="384862.71,5812278.57,0.00 384862.71,5812378.57,0.00" speed="13.89" />
	<edge id="E36" from="J24" to="J0" numLanes="1" shape="384362.71,5812278.57,0.00 384362.71,5812378.57,0.00" speed="13.89" />
	<edge id="E39" from="J25" to="J26" numLanes="1" shape="384462.71,5812178.57,0.00 384562.71,5812178.57,0.00" speed="13.89" />
	<edge id="E38" from="J23" to="J25" numLanes="1" shape="384362.71,5812178.57,0.00 384462.71,5812178.57,0.00" speed="13.89" />
	<edge id="-E0" from="J0" to="A0" numLanes="1" shape="384362.71,5812378.57,0.00 384462.71,5812378.57,0.00" speed="13.89" />
	<edge id="-E1" from="J1" to="A4" numLanes="1" shape="384262.71,5812678.57,0.00 384462.71,5812778.57,0.00" speed="13.89" />
	<edge id="-E2" from="J0" to="A1" numLanes="1" shape="384362.71,5812378.57,0.00 384462.71,5812478.57,0.00" speed="13.89" />
	<edge id="-E3" from="J2" to="A2" numLanes="1" shape="384362.71,5812578.57,0.00 384462.71,5812578.57,0.00" speed="13.89" />
	<edge id="A4A3" from="A4" to="A3" numLanes="1" shape="384462.71,5812778.57,0.00 384462.71,5812678.57,0.00" speed="13.89" />
	<edge id="-E4" from="J3" to="A3" numLanes="1" shape="384362.71,5812478.57,0.00 384462.71,5812678.57,0.00" speed="13.89" />
	<edge id="-E5" from="J4" to="J3" numLanes="1" shape="384262.71,5812178.57,0.00 384362.71,5812478.57,0.00" speed="13.89" />
	<edge id="E4E3" from="E4" to="E3" numLanes="1" shape="384862.71,5812778.57,0.00 384862.71,5812678.57,0.00" speed="13.89" />
	<edge id="-E6" from="J5" to="J0" numLanes="1" shape="384262.71,5812378.57,0.00 384362.71,5812378.57,0.00" speed="13.89" />
	<edge id="-E7" from="J6" to="J5" numLanes="1" shape="384162.71,5812378.57,0.00 384262.71,5812378.57,0.00" speed="13.89" />
	<edge id="-E8" from="J7" to="J1" numLanes="1" shape="384162.71,5812578.57,0.00 384262.71,5812678.57,0.00" speed="13.89" />
	<edge id="E40" from="J26" to="J27" numLanes="1" shape="384562.71,5812178.57,0.00 384762.71,5812278.57,0.00" speed="13.89" />
	<edge id="-E9" from="J8" to="J7" numLanes="1" shape="384162.71,5812478.57,0.00 384162.71,5812578.57,0.00" speed="13.89" />
	<edge id="E42" from="D0" to="J28" numLanes="1" shape="384762.71,5812378.57,0.00 384462.71,5812278.57,0.00" speed="13.89" />
	<edge id="E41" from="J27" to="J20" numLanes="1" shape="384762.71,5812278.57,0.00 384862.71,5812278.57,0.00" speed="13.89" />
	<edge id="D1D2" from="D1" to="D2" numLanes="1" shape="384762.71,5812478.57,0.00 384762.71,5812578.57,0.00" speed="13.89" />
	<edge id="E44" from="J24" to="J28" numLanes="1" shape="384362.71,5812278.57,0.00 384462.71,5812278.57,0.00" speed="13.89" />
	<edge id="E43" from="A0" to="J23" numLanes="1" shape="384462.71,5812378.57,0.00 384362.71,5812178.57,0.00" speed="13.89" />
	<edge id="D1D0" from="D1" to="D0" numLanes="1" shape="384762.71,5812478.57,0.00 384762.71,5812378.57,0.00" speed="13.89" />
	<edge id="E46" from="A0" to="J29" numLanes="1" shape="384462.71,5812378.57,0.00 384662.71,5812278.57,0.00" speed="13.89" />
	<edge id="E45" from="J28" to="J25" numLanes="1" shape="384462.71,5812278.57,0.00 384462.71,5812178.57,0.00" speed="13.89" />
	<edge id="E48" from="J20" to="D0" numLanes="1" shape="384862.71,5812278.57,0.00 384762.71,5812378.57,0.00" speed="13.89" />
	<edge id="E47" from="C0" to="J27" numLanes="1" shape="384662.71,5812378.57,0.00 384762.71,5812278.57,0.00" speed="13.89" />
	<edge id="E49" from="J27" to="J29" numLanes="1" shape="384762.71,5812278.57,0.00 384662.71,5812278.57,0.00" speed="13.89" />
	<edge id="A4B4" from="A4" to="B4" numLanes="1" shape="384462.71,5812778.57,0.00 384562.71,5812778.57,0.00" speed="13.89" />
	<edge id="E2D2" from="E2" to="D2" numLanes="1" shape="384862.71,5812578.57,0.00 384762.71,5812578.57,0.00" speed="13.89" />
	<edge id="E51" from="J30" to="B0" numLanes="1" shape="384562.71,5812278.57,0.00 384562.71,5812378.57,0.00" speed="13.89" />
	<edge id="E50" from="J26" to="J30" numLanes="1" shape="384562.71,5812178.57,0.00 384562.71,5812278.57,0.00" speed="13.89" />
	<edge id="E53" from="A3" to="J31" numLanes="1" shape="384462.71,5812678.57,0.00 384262.71,5812578.57,0.00" speed="13.89" />
	<edge id="E52" from="J23" to="J13" numLanes="1" shape="384362.71,5812178.57,0.00 384162.71,5812278.57,0.00" speed="13.89" />
	<edge id="E55" from="J31" to="J3" numLanes="1" shape="384262.71,5812578.57,0.00 384362.71,5812478.57,0.00" speed="13.89" />
	<edge id="E54" from="J31" to="J7" numLanes="1" shape="384262.71,5812578.57,0.00 384162.71,5812578.57,0.00" speed="13.89" />
	<edge id="D0C0" from="D0" to="C0" numLanes="1" shape="384762.71,5812378.57,0.00 384662.71,5812378.57,0.00" speed="13.89" />
	<edge id="D1E1" from="D1" to="E1" numLanes="1" shape="384762.71,5812478.57,0.00 384862.71,5812478.57,0.00" speed="13.89" />
	<edge id="E57" from="J9" to="J6" numLanes="1" shape="384062.71,5812578.57,0.00 384162.71,5812378.57,0.00" speed="13.89" />
	<edge id="E56" from="J17" to="J16" numLanes="1" shape="384062.71,5812178.57,0.00 384062.71,5812078.57,0.00" speed="13.89" />
	<edge id="E59" from="J8" to="J14" numLanes="1" shape="384162.71,5812478.57,0.00 384062.71,5812378.57,0.00" speed="13.89" />
	<edge id="E58" from="J11" to="J14" numLanes="1" shape="384062.71,5812478.57,0.00 384062.71,5812378.57,0.00" speed="13.89" />
	<edge id="A3A4" from="A3" to="A4" numLanes="1" shape="384462.71,5812678.57,0.00 384462.71,5812778.57,0.00" speed="13.89" />
	<edge id="E3E2" from="E3" to="E2" numLanes="1" shape="384862.71,5812678.57,0.00 384862.71,5812578.57,0.00" speed="13.89" />
	<edge id="A3A2" from="A3" to="A2" numLanes="1" shape="384462.71,5812678.57,0.00 384462.71,5812578.57,0.00" speed="13.89" />
	<edge id="E3E4" from="E3" to="E4" numLanes="1" shape="384862.71,5812678.57,0.00 384862.71,5812778.57,0.00" speed="13.89" />
	<edge id="E60" from="J19" to="J20" numLanes="2" shape="384162.71,5811978.57,0.00 384862.71,5812278.57,0.00" speed="23.89" />
	<edge id="E62" from="D2" to="C3" numLanes="1" shape="384762.71,5812578.57,0.00 384662.71,5812678.57,0.00" speed="13.89" />
	<edge id="E61" from="E1" to="D2" numLanes="1" shape="384862.71,5812478.57,0.00 384762.71,5812578.57,0.00" speed="13.89" />
	<edge id="-E10" from="J6" to="J8" numLanes="1" shape="384162.71,5812378.57,0.00 384162.71,5812478.57,0.00" speed="13.89" />
	<edge id="E63" from="C3" to="B4" numLanes="1" shape="384662.71,5812678.57,0.00 384562.71,5812778.57,0.00" speed="13.89" />
	<edge id="D0D1" from="D0" to="D1" numLanes="1" shape="384762.71,5812378.57,0.00 384762.71,5812478.57,0.00" speed="13.89" />
	<edge id="-E16" from="J11" to="J9" numLanes="1" shape="384062.71,5812478.57,0.00 384062.71,5812578.57,0.00" speed="13.89" />
	<edge id="-E15" from="J10" to="J4" numLanes="1" shape="384062.71,5812278.57,0.00 384262.71,5812178.57,0.00" speed="13.89" />
	<edge id="-E18" from="J13" to="J5" numLanes="1" shape="384162.71,5812278.57,0.00 384262.71,5812378.57,0.00" speed="13.89" />
	<edge id="-E17" from="J12" to="J11" numLanes="1" shape="383962.71,5812378.57,0.00 384062.71,5812478.57,0.00" speed="13.89" />
	<edge id="-E12" from="J7" to="J3" numLanes="1" shape="384162.71,5812578.57,0.00 384362.71,5812478.57,0.00" speed="13.89" />
	<edge id="-E11" from="J7" to="J5" numLanes="1" shape="384162.71,5812578.57,0.00 384262.71,5812378.57,0.00" speed="13.89" />
	<edge id="-E14" from="J9" to="J7" numLanes="1" shape="384062.71,5812578.57,0.00 384162.71,5812578.57,0.00" speed="13.89" />
	<edge id="-E13" from="J2" to="J1" numLanes="1" shape="384362.71,5812578.57,0.00 384262.71,5812678.57,0.00" speed="13.89" />
	<edge id="E1D1" from="E1" to="D1" numLanes="1" shape="384862.71,5812478.57,0.00 384762.71,5812478.57,0.00" speed="13.89" />
	<edge id="B4A4" from="B4" to="A4" numLanes="1" shape="384562.71,5812778.57,0.00 384462.71,5812778.57,0.00" speed="13.89" />
	<edge id="A3B3" from="A3" to="B3" numLanes="1" shape="384462.71,5812678.57,0.00 384562.71,5812678.57,0.00" speed="13.89" />
	<edge id="-E21" from="J15" to="J12" numLanes="1" shape="383962.71,5812278.57,0.00 383962.71,5812378.57,0.00" speed="13.89" />
	<edge id="-E20" from="J12" to="J14" numLanes="1" shape="383962.71,5812378.57,0.00 384062.71,5812378.57,0.00" speed="13.89" />
	<edge id="-E27" from="J18" to="J17" numLanes="1" shape="384162.71,5812178.57,0.00 384062.71,5812178.57,0.00" speed="13.89" />
	<edge id="D0E0" from="D0" to="E0" numLanes="1" shape="384762.71,5812378.57,0.00 384862.71,5812378.57,0.00" speed="13.89" />
	<edge id="-E26" from="J17" to="J10" numLanes="1" shape="384062.71,5812178.57,0.00 384062.71,5812278.57,0.00" speed="13.89" />
	<edge id="-E29" from="J4" to="J16" numLanes="1" shape="384262.71,5812178.57,0.00 384062.71,5812078.57,0.00" speed="13.89" />
	<edge id="-E28" from="J4" to="J18" numLanes="1" shape="384262.71,5812178.57,0.00 384162.71,5812178.57,0.00" speed="13.89" />
	<edge id="-E23" from="J14" to="J13" numLanes="1" shape="384062.71,5812378.57,0.00 384162.71,5812278.57,0.00" speed="13.89" />
	<edge id="-E22" from="J10" to="J13" numLanes="1" shape="384062.71,5812278.57,0.00 384162.71,5812278.57,0.00" speed="13.89" />
	<edge id="-E25" from="J16" to="J15" numLanes="1" shape="384062.71,5812078.57,0.00 383962.71,5812278.57,0.00" speed="13.89" />
	<edge id="-E24" from="J10" to="J15" numLanes="1" shape="384062.71,5812278.57,0.00 383962.71,5812278.57,0.00" speed="13.89" />
	<edge id="-E19" from="J14" to="J6" numLanes="1" shape="384062.71,5812378.57,0.00 384162.71,5812378.57,0.00" speed="13.89" />
	<edge id="E2E1" from="E2" to="E1" numLanes="1" shape="384862.71,5812578.57,0.00 384862.71,5812478.57,0.00" speed="13.89" />
	<edge id="E2E3" from="E2" to="E3" numLanes="1" shape="384862.71,5812578.57,0.00 384862.71,5812678.57,0.00" speed="13.89" />
	<edge id="A2A3" from="A2" to="A3" numLanes="1" shape="384462.71,5812578.57,0.00 384462.71,5812678.57,0.00" speed="13.89" />
	<edge id="B4B3" from="B4" to="B3" numLanes="1" shape="384562.71,5812778.57,0.00 384562.71,5812678.57,0.00" speed="13.89" />
	<edge id="A2A1" from="A2" to="A1" numLanes="1" shape="384462.71,5812578.57,0.00 384462.71,5812478.57,0.00" speed="13.89" />
</edges>
