<nodes>
	<node id="A0" x="384462.71" y="5812378.57" z="0.00" type="priority" />
	<node id="A1" x="384462.71" y="5812478.57" z="0.00" type="priority" />
	<node id="A2" x="384462.71" y="5812578.57" z="0.00" type="priority" />
	<node id="A3" x="384462.71" y="5812678.57" z="0.00" type="priority" />
	<node id="A4" x="384462.71" y="5812778.57" z="0.00" type="priority" />
	<node id="B0" x="384562.71" y="5812378.57" z="0.00" type="priority" />
	<node id="B1" x="384562.71" y="5812478.57" z="0.00" type="priority" />
	<node id="B2" x="384562.71" y="5812578.57" z="0.00" type="priority" />
	<node id="B3" x="384562.71" y="5812678.57" z="0.00" type="priority" />
	<node id="B4" x="384562.71" y="5812778.57" z="0.00" type="priority" />
	<node id="C0" x="384662.71" y="5812378.57" z="0.00" type="priority" />
	<node id="C1" x="384662.71" y="5812478.57" z="0.00" type="priority" />
	<node id="C2" x="384662.71" y="5812578.57" z="0.00" type="priority" />
	<node id="C3" x="384662.71" y="5812678.57" z="0.00" type="priority" />
	<node id="C4" x="384662.71" y="5812778.57" z="0.00" type="priority" />
	<node id="D0" x="384762.71" y="5812378.57" z="0.00" type="priority" />
	<node id="D1" x="384762.71" y="5812478.57" z="0.00" type="priority" />
	<node id="D2" x="384762.71" y="5812578.57" z="0.00" type="priority" />
	<node id="D3" x="384762.71" y="5812678.57" z="0.00" type="priority" />
	<node id="D4" x="384762.71" y="5812778.57" z="0.00" type="priority" />
	<node id="E0" x="384862.71" y="5812378.57" z="0.00" type="priority" />
	<node id="E1" x="384862.71" y="5812478.57" z="0.00" type="priority" />
	<node id="E2" x="384862.71" y="5812578.57" z="0.00" type="priority" />
	<node id="E3" x="384862.71" y="5812678.57" z="0.00" type="priority" />
	<node id="E4" x="384862.71" y="5812778.57" z="0.00" type="priority" />
	<node id="J0" x="384362.71" y="5812378.57" z="0.00" type="priority" />
	<node id="J1" x="384262.71" y="5812678.57" z="0.00" type="priority" />
	<node id="J10" x="384062.71" y="5812278.57" z="0.00" type="priority" />
	<node id="J11" x="384062.71" y="5812478.57" z="0.00" type="priority" />
	<node id="J12" x="383962.71" y="5812378.57" z="0.00" type="priority" />
	<node id="J13" x="384162.71" y="5812278.57" z="0.00" type="priority" />
	<node id="J14" x="384062.71" y="5812378.57" z="0.00" type="priority" />
	<node id="J15" x="383962.71" y="5812278.57" z="0.00" type="priority" />
	<node id="J16" x="384062.71" y="5812078.57" z="0.00" type="priority" />
	<node id="J17" x="384062.71" y="5812178.57" z="0.00" type="priority" />
	<node id="J18" x="384162.71" y="5812178.57" z="0.00" type="priority" />
	<node id="J19" x="384162.71" y="5811978.57" z="0.00" type="priority" />
	<node id="J2" x="384362.71" y="5812578.57" z="0.00" type="priority" />
	<node id="J20" x="384862.71" y="5812278.57" z="0.00" type="priority" />
	<node id="J21" x="384262.71" y="5812078.57" z="0.00" type="priority" />
	<node id="J22" x="384362.71" y="5812078.57" z="0.00" type="priority" />
	<node id="J23" x="384362.71" y="5812178.57" z="0.00" type="priority" />
	<node id="J24" x="384362.71" y="5812278.57" z="0.00" type="priority" />
	<node id="J25" x="384462.71" y="5812178.57" z="0.00" type="priority" />
	<node id="J26" x="384562.71" y="5812178.57" z="0.00" type="priority" />
	<node id="J27" x="384762.71" y="5812278.57" z="0.00" type="priority" />
	<node id="J28" x="384462.71" y="5812278.57" z="0.00" type="priority" />
	<node id="J29" x="384662.71" y="5812278.57" z="0.00" type="priority" />
	<node id="J3" x="384362.71" y="5812478.57" z="0.00" type="priority" />
	<node id="J30" x="384562.71" y="5812278.57" z="0.00" type="priority" />
	<node id="J31" x="384262.71" y="5812578.57" z="0.00" type="priority" />
	<node id="J4" x="384262.71" y="5812178.57" z="0.00" type="priority" />
	<node id="J5" x="384262.71" y="5812378.57" z="0.00" type="priority" />
	<node id="J6" x="384162.71" y="5812378.57" z="0.00" type="priority" />
	<node id="J7" x="384162.71" y="5812578.57" z="0.00" type="priority" />
	<node id="J8" x="384162.71" y="5812478.57" z="0.00" type="priority" />
	<node id="J9" x="384062.71" y="5812578.57" z="0.00" type="priority" />
</nodes>
