<connections>
	<connection from="-E8" to="E7" />
	<connection from="-E8" to="E9" />
	<connection from="-E8" to="-E0" />
	<connection from="-E8" to="-E6" />
	<connection from="-E9" to="E7" />
	<connection from="-E9" to="E8" />
	<connection from="-E9" to="-E0" />
	<connection from="-E9" to="-E6" />
	<connection from="E0" to="E7" />
	<connection from="E0" to="E8" />
	<connection from="E0" to="E9" />
	<connection from="E0" to="-E6" />
	<connection from="E1" to="E5" />
	<connection from="E1" to="E4" />
	<connection from="E2" to="-E5" />
	<connection from="E2" to="-E7" />
	<connection from="E3" to="E6" />
	<connection from="E3" to="-E4" />
	<connection from="E4" to="E6" />
	<connection from="E4" to="-E3" />
	<connection from="E5" to="-E2" />
	<connection from="E5" to="-E7" />
	<connection from="E6" to="E7" />
	<connection from="E6" to="E8" />
	<connection from="E6" to="E9" />
	<connection from="E6" to="-E0" />
	<connection from="E7" to="-E2" />
	<connection from="E7" to="-E5" />
	<connection from="-E0" to="E1" />
	<connection from="-E0" to="E2" />
	<connection from="-E0" to="E3" />
	<connection from="-E1" to="E0" />
	<connection from="-E1" to="E2" />
	<connection from="-E1" to="E3" />
	<connection from="-E2" to="E0" />
	<connection from="-E2" to="E1" />
	<connection from="-E2" to="E3" />
	<connection from="-E3" to="E0" />
	<connection from="-E3" to="E1" />
	<connection from="-E3" to="E2" />
	<connection from="-E4" to="E5" />
	<connection from="-E4" to="-E1" />
	<connection from="-E5" to="-E1" />
	<connection from="-E5" to="E4" />
	<connection from="-E6" to="-E3" />
	<connection from="-E6" to="-E4" />
	<connection from="-E7" to="E8" />
	<connection from="-E7" to="E9" />
	<connection from="-E7" to="-E0" />
	<connection from="-E7" to="-E6" />
</connections>
