<edges>
	<edge id="-E8" from="J5" to="J1" numLanes="2" shape="384462.71,5813378.57,0.00 384462.71,5812878.57,0.00" speed="13.89" />
	<edge id="-E9" from="J6" to="J1" numLanes="2" shape="384462.71,5812378.57,0.00 384462.71,5812878.57,0.00" speed="13.89" />
	<edge id="E0" from="J0" to="J1" numLanes="2" shape="384962.71,5812878.57,0.00 384462.71,5812878.57,0.00" speed="13.89" />
	<edge id="E1" from="J0" to="J2" numLanes="2" shape="384962.71,5812878.57,0.00 385462.71,5812878.57,0.00" speed="13.89" />
	<edge id="E2" from="J0" to="J3" numLanes="2" shape="384962.71,5812878.57,0.00 384962.71,5812578.57,0.00" speed="13.89" />
	<edge id="E3" from="J0" to="J4" numLanes="2" shape="384962.71,5812878.57,0.00 384962.71,5813178.57,0.00" speed="13.89" />
	<edge id="E4" from="J2" to="J4" numLanes="2" shape="385462.71,5812878.57,0.00 384962.71,5813178.57,0.00" speed="13.89" />
	<edge id="E5" from="J2" to="J3" numLanes="2" shape="385462.71,5812878.57,0.00 384962.71,5812578.57,0.00" speed="13.89" />
	<edge id="E6" from="J4" to="J1" numLanes="2" shape="384962.71,5813178.57,0.00 384462.71,5812878.57,0.00" speed="13.89" />
	<edge id="E7" from="J1" to="J3" numLanes="2" shape="384462.71,5812878.57,0.00 384962.71,5812578.57,0.00" speed="13.89" />
	<edge id="E8" from="J1" to="J5" numLanes="2" shape="384462.71,5812878.57,0.00 384462.71,5813378.57,0.00" speed="13.89" />
	<edge id="E9" from="J1" to="J6" numLanes="2" shape="384462.71,5812878.57,0.00 384462.71,5812378.57,0.00" speed="13.89" />
	<edge id="-E0" from="J1" to="J0" numLanes="2" shape="384462.71,5812878.57,0.00 384962.71,5812878.57,0.00" speed="13.89" />
	<edge id="-E1" from="J2" to="J0" numLanes="2" shape="385462.71,5812878.57,0.00 384962.71,5812878.57,0.00" speed="13.89" />
	<edge id="-E2" from="J3" to="J0" numLanes="2" shape="384962.71,5812578.57,0.00 384962.71,5812878.57,0.00" speed="13.89" />
	<edge id="-E3" from="J4" to="J0" numLanes="2" shape="384962.71,5813178.57,0.00 384962.71,5812878.57,0.00" speed="13.89" />
	<edge id="-E4" from="J4" to="J2" numLanes="2" shape="384962.71,5813178.57,0.00 385462.71,5812878.57,0.00" speed="13.89" />
	<edge id="-E5" from="J3" to="J2" numLanes="2" shape="384962.71,5812578.57,0.00 385462.71,5812878.57,0.00" speed="13.89" />
	<edge id="-E6" from="J1" to="J4" numLanes="2" shape="384462.71,5812878.57,0.00 384962.71,5813178.57,0.00" speed="13.89" />
	<edge id="-E7" from="J3" to="J1" numLanes="2" shape="384962.71,5812578.57,0.00 384462.71,5812878.57,0.00" speed="13.89" />
</edges>
