<?xml version="1.0" ?>
<!-- Generated by MOSAIC scenario-convert 24.1 -->
<routes>
	<vType id="default" length="7.5" maxSpeed="50" minGap="2.0" carFollowModel="Krauss" accel="0.80" decel="4.5" sigma="0.5" tau="1"/>
	<route id="r_0" edges="-E8 -E0 E1" />
	<route id="r_2" edges="-E9 -E0 E1" />
	<route id="r_1" edges="-E8 E7 -E5" />
	<route id="r_3" edges="-E8 E7 -E2 E1" />
</routes>