<?xml version="1.0" ?>
<!-- Generated by MOSAIC scenario-convert 24.1 -->
<routes>
	<vType id="default" length="7.5" maxSpeed="50" minGap="2.0" carFollowModel="Krauss" accel="0.80" decel="4.5" sigma="0.5" tau="1"/>
	<route id="r_0" edges="A4A3 A3A2 A2A1 A1A0 E46 -E49 E41" />
	<route id="r_2" edges="A4A3 E4 E5 E15 -E24 -E21 -E17" />
	<route id="r_1" edges="E1 E8 E9 E10 -E7 E18 E22 E26 E56" />
	<route id="r_4" edges="-E20 -E23 -E52 E38 -E45 -E42 D0D1 D1D2 D2D3" />
	<route id="r_3" edges="E17 E21 E25 E30 E60 E37 E0E1 E1E2" />
	<route id="r_6" edges="-E62 -E61 E1E0 -E37 -E60 -E30 -E56 -E26 -E24 -E21 -E20" />
	<route id="r_5" edges="-E20 -E19 -E7 -E6 -E0 A0B0 B0C0 C0D0 -E48" />
	<route id="r_8" edges="A4A3 A3A2 A2B2 B2C2 C2C1 C1C0 C0D0 D0E0 -E37 -E60 -E30 E29 E15 -E22 E23 -E59 E10 -E7 -E6 -E0 A0A1 A1A2 A2A3 A3B3 B3C3 C3C4 C4B4 B4A4" />
	<route id="r_7" edges="B4C4 C4C3 C3D3 D3E3 E3E2 E2E1 E1E0 E0D0 D0C0 E47 E49 -E46 A0A1 A1B1 B1C1 C1C2 C2C3 E63" />
</routes>