<?xml version="1.0" encoding="UTF-8"?>

<!-- generated on 2025-05-11 21:08:10 by Eclipse SUMO netconvert Version 1.19.0
<configuration xmlns:xsi="http://www.w3.org/2001/XMLSchema-instance" xsi:noNamespaceSchemaLocation="http://sumo.dlr.de/xsd/netconvertConfiguration.xsd">

    <input>
        <node-files value="C:\Users\Ricardo\Stuff\UM\A4_S2\NPR\scenario-convert\proj\sumo\proj.nod.xml"/>
        <edge-files value="C:\Users\Ricardo\Stuff\UM\A4_S2\NPR\scenario-convert\proj\sumo\proj.edg.xml"/>
        <connection-files value="C:\Users\Ricardo\Stuff\UM\A4_S2\NPR\scenario-convert\proj\sumo\proj.con.xml"/>
    </input>

    <output>
        <output-file value="C:\Users\Ricardo\Stuff\UM\A4_S2\NPR\scenario-convert\proj\sumo\proj.net.xml"/>
    </output>

</configuration>
-->

<net version="1.16" junctionCornerDetail="5" limitTurnSpeed="5.50" xmlns:xsi="http://www.w3.org/2001/XMLSchema-instance" xsi:noNamespaceSchemaLocation="http://sumo.dlr.de/xsd/net_file.xsd">

    <location netOffset="-383962.71,-5811978.57" convBoundary="0.00,0.00,900.00,800.00" origBoundary="383962.71,5811978.57,384862.71,5812778.57" projParameter="+proj=utm +zone=33  +ellps=WGS84 +datum=WGS84 +units=m +no_defs"/>

    <edge id=":A0_0" function="internal">
        <lane id=":A0_0_0" index="0" speed="7.02" length="10.67" shape="498.40,407.20 497.93,404.75 496.51,403.00 494.14,401.95 490.82,401.60"/>
    </edge>
    <edge id=":A0_1" function="internal">
        <lane id=":A0_1_0" index="0" speed="13.89" length="15.33" shape="498.40,407.20 498.10,403.42 497.27,399.66 496.02,395.99 494.46,392.51"/>
    </edge>
    <edge id=":A0_2" function="internal">
        <lane id=":A0_2_0" index="0" speed="12.76" length="24.37" shape="498.40,407.20 499.44,403.10 502.55,398.99 507.73,394.86 514.99,390.72"/>
    </edge>
    <edge id=":A0_3" function="internal">
        <lane id=":A0_3_0" index="0" speed="10.09" length="23.16" shape="498.40,407.20 499.60,403.35 503.19,400.60 509.17,398.95 517.56,398.40"/>
    </edge>
    <edge id=":A0_4" function="internal">
        <lane id=":A0_4_0" index="0" speed="8.99" length="18.20" shape="517.56,401.60 510.57,401.95 505.59,403.00 502.60,404.75 501.60,407.20"/>
    </edge>
    <edge id=":A0_5" function="internal">
        <lane id=":A0_5_0" index="0" speed="13.89" length="26.73" shape="517.56,401.60 490.82,401.60"/>
    </edge>
    <edge id=":A0_6" function="internal">
        <lane id=":A0_6_0" index="0" speed="13.18" length="8.89" shape="517.56,401.60 509.16,401.03 508.70,400.91"/>
    </edge>
    <edge id=":A0_7" function="internal">
        <lane id=":A0_7_0" index="0" speed="6.26" length="2.30" shape="517.56,401.60 515.38,400.85"/>
    </edge>
    <edge id=":A0_20" function="internal">
        <lane id=":A0_20_0" index="0" speed="13.18" length="17.12" shape="508.70,400.91 502.51,399.33 497.61,396.49 494.46,392.51"/>
    </edge>
    <edge id=":A0_21" function="internal">
        <lane id=":A0_21_0" index="0" speed="6.26" length="12.99" shape="515.38,400.85 513.75,400.29 511.86,397.20 512.17,393.59 514.99,390.72"/>
    </edge>
    <edge id=":A0_8" function="internal">
        <lane id=":A0_8_0" index="0" speed="5.60" length="11.85" shape="516.42,393.58 512.87,395.69 511.88,397.20 513.44,398.10 517.56,398.40"/>
    </edge>
    <edge id=":A0_9" function="internal">
        <lane id=":A0_9_0" index="0" speed="11.84" length="20.87" shape="516.42,393.58 509.93,397.21 505.30,400.69 502.53,404.02 501.60,407.20"/>
    </edge>
    <edge id=":A0_10" function="internal">
        <lane id=":A0_10_0" index="0" speed="13.89" length="26.91" shape="516.42,393.58 511.23,395.78 503.82,398.43 496.30,400.66 490.82,401.60"/>
    </edge>
    <edge id=":A0_11" function="internal">
        <lane id=":A0_11_0" index="0" speed="10.36" length="24.51" shape="516.42,393.58 508.62,396.73 502.36,397.60 497.64,396.19 494.46,392.51"/>
    </edge>
    <edge id=":A0_12" function="internal">
        <lane id=":A0_12_0" index="0" speed="9.28" length="19.46" shape="497.33,391.08 499.70,393.59 503.44,394.38 508.53,393.42 514.99,390.72"/>
    </edge>
    <edge id=":A0_13" function="internal">
        <lane id=":A0_13_0" index="0" speed="12.28" length="22.49" shape="497.33,391.08 499.96,394.28 504.21,396.57 510.08,397.94 517.56,398.40"/>
    </edge>
    <edge id=":A0_14" function="internal">
        <lane id=":A0_14_0" index="0" speed="13.89" length="16.80" shape="497.33,391.08 498.94,394.78 500.30,398.94 501.25,403.20 501.60,407.20"/>
    </edge>
    <edge id=":A0_15" function="internal">
        <lane id=":A0_15_0" index="0" speed="7.44" length="16.40" shape="497.33,391.08 498.89,395.68 498.33,398.97 495.64,400.94 490.82,401.60"/>
    </edge>
    <edge id=":A0_16" function="internal">
        <lane id=":A0_16_0" index="0" speed="5.74" length="9.18" shape="490.82,398.40 493.52,398.03 495.03,396.93 495.34,395.09 494.46,392.51"/>
    </edge>
    <edge id=":A0_17" function="internal">
        <lane id=":A0_17_0" index="0" speed="13.89" length="25.44" shape="490.82,398.40 496.08,397.51 503.10,395.40 510.03,392.86 514.99,390.72"/>
    </edge>
    <edge id=":A0_18" function="internal">
        <lane id=":A0_18_0" index="0" speed="13.89" length="26.73" shape="490.82,398.40 517.56,398.40"/>
    </edge>
    <edge id=":A0_19" function="internal">
        <lane id=":A0_19_0" index="0" speed="8.42" length="4.99" shape="490.82,398.40 495.54,398.95 495.75,399.06"/>
    </edge>
    <edge id=":A0_22" function="internal">
        <lane id=":A0_22_0" index="0" speed="8.42" length="10.83" shape="495.75,399.06 498.91,400.60 500.93,403.35 501.60,407.20"/>
    </edge>
    <edge id=":A1_0" function="internal">
        <lane id=":A1_0_0" index="0" speed="13.42" length="16.74" shape="498.40,507.20 497.91,503.85 496.44,500.34 494.00,496.67 490.58,492.84"/>
    </edge>
    <edge id=":A1_1" function="internal">
        <lane id=":A1_1_0" index="0" speed="13.89" length="18.93" shape="498.40,507.20 498.40,488.27"/>
    </edge>
    <edge id=":A1_2" function="internal">
        <lane id=":A1_2_0" index="0" speed="8.00" length="4.07" shape="498.40,507.20 498.95,503.35 499.04,503.20"/>
    </edge>
    <edge id=":A1_3" function="internal">
        <lane id=":A1_3_0" index="0" speed="3.65" length="1.44" shape="498.40,507.20 499.20,506.00"/>
    </edge>
    <edge id=":A1_15" function="internal">
        <lane id=":A1_15_0" index="0" speed="8.00" length="10.13" shape="499.04,503.20 500.60,500.60 503.35,498.95 507.20,498.40"/>
    </edge>
    <edge id=":A1_16" function="internal">
        <lane id=":A1_16_0" index="0" speed="3.65" length="3.23" shape="499.20,506.00 500.00,505.60 500.80,506.00 501.60,507.20"/>
    </edge>
    <edge id=":A1_4" function="internal">
        <lane id=":A1_4_0" index="0" speed="6.51" length="9.03" shape="507.20,501.60 504.75,501.95 503.00,503.00 501.95,504.75 501.60,507.20"/>
    </edge>
    <edge id=":A1_5" function="internal">
        <lane id=":A1_5_0" index="0" speed="13.89" length="19.24" shape="507.20,501.60 503.21,501.05 499.11,499.41 494.90,496.67 490.58,492.84"/>
    </edge>
    <edge id=":A1_6" function="internal">
        <lane id=":A1_6_0" index="0" speed="8.71" length="17.02" shape="507.20,501.60 503.97,500.27 501.15,496.93 499.16,492.60 498.40,488.27"/>
    </edge>
    <edge id=":A1_7" function="internal">
        <lane id=":A1_7_0" index="0" speed="3.65" length="4.67" shape="507.20,501.60 506.00,500.80 505.60,500.00 506.00,499.20 507.20,498.40"/>
    </edge>
    <edge id=":A1_8" function="internal">
        <lane id=":A1_8_0" index="0" speed="7.65" length="12.89" shape="501.60,488.27 501.95,492.70 503.00,495.87 504.75,497.77 507.20,498.40"/>
    </edge>
    <edge id=":A1_9" function="internal">
        <lane id=":A1_9_0" index="0" speed="13.89" length="18.93" shape="501.60,488.27 501.60,507.20"/>
    </edge>
    <edge id=":A1_10" function="internal">
        <lane id=":A1_10_0" index="0" speed="7.42" length="6.00" shape="501.60,488.27 500.93,494.24"/>
    </edge>
    <edge id=":A1_11" function="internal">
        <lane id=":A1_11_0" index="0" speed="3.65" length="1.44" shape="501.60,488.27 500.80,489.47"/>
    </edge>
    <edge id=":A1_17" function="internal">
        <lane id=":A1_17_0" index="0" speed="7.42" length="13.30" shape="500.93,494.24 500.91,494.41 498.84,497.21 495.40,496.69 490.58,492.84"/>
    </edge>
    <edge id=":A1_18" function="internal">
        <lane id=":A1_18_0" index="0" speed="3.65" length="3.23" shape="500.80,489.47 500.00,489.87 499.20,489.47 498.40,488.27"/>
    </edge>
    <edge id=":A1_12" function="internal">
        <lane id=":A1_12_0" index="0" speed="5.47" length="9.74" shape="492.84,490.58 495.27,492.52 497.01,492.78 498.05,491.37 498.40,488.27"/>
    </edge>
    <edge id=":A1_13" function="internal">
        <lane id=":A1_13_0" index="0" speed="13.42" length="16.74" shape="492.84,490.58 496.67,494.00 500.34,496.44 503.85,497.91 507.20,498.40"/>
    </edge>
    <edge id=":A1_14" function="internal">
        <lane id=":A1_14_0" index="0" speed="13.89" length="19.06" shape="492.84,490.58 496.06,494.47 498.86,499.06 500.85,503.56 501.60,507.20"/>
    </edge>
    <edge id=":A2_0" function="internal">
        <lane id=":A2_0_0" index="0" speed="6.51" length="9.03" shape="498.40,607.20 498.05,604.75 497.00,603.00 495.25,601.95 492.80,601.60"/>
    </edge>
    <edge id=":A2_1" function="internal">
        <lane id=":A2_1_0" index="0" speed="13.89" length="14.40" shape="498.40,607.20 498.40,592.80"/>
    </edge>
    <edge id=":A2_2" function="internal">
        <lane id=":A2_2_0" index="0" speed="8.00" length="4.07" shape="498.40,607.20 498.95,603.35 499.04,603.20"/>
    </edge>
    <edge id=":A2_3" function="internal">
        <lane id=":A2_3_0" index="0" speed="3.65" length="1.44" shape="498.40,607.20 499.20,606.00"/>
    </edge>
    <edge id=":A2_15" function="internal">
        <lane id=":A2_15_0" index="0" speed="8.00" length="10.13" shape="499.04,603.20 500.60,600.60 503.35,598.95 507.20,598.40"/>
    </edge>
    <edge id=":A2_16" function="internal">
        <lane id=":A2_16_0" index="0" speed="3.65" length="3.23" shape="499.20,606.00 500.00,605.60 500.80,606.00 501.60,607.20"/>
    </edge>
    <edge id=":A2_4" function="internal">
        <lane id=":A2_4_0" index="0" speed="6.51" length="9.03" shape="507.20,601.60 504.75,601.95 503.00,603.00 501.95,604.75 501.60,607.20"/>
    </edge>
    <edge id=":A2_5" function="internal">
        <lane id=":A2_5_0" index="0" speed="13.89" length="14.40" shape="507.20,601.60 492.80,601.60"/>
    </edge>
    <edge id=":A2_6" function="internal">
        <lane id=":A2_6_0" index="0" speed="8.00" length="14.19" shape="507.20,601.60 503.35,601.05 500.60,599.40 498.95,596.65 498.40,592.80"/>
    </edge>
    <edge id=":A2_7" function="internal">
        <lane id=":A2_7_0" index="0" speed="3.65" length="4.67" shape="507.20,601.60 506.00,600.80 505.60,600.00 506.00,599.20 507.20,598.40"/>
    </edge>
    <edge id=":A2_8" function="internal">
        <lane id=":A2_8_0" index="0" speed="6.51" length="9.03" shape="501.60,592.80 501.95,595.25 503.00,597.00 504.75,598.05 507.20,598.40"/>
    </edge>
    <edge id=":A2_9" function="internal">
        <lane id=":A2_9_0" index="0" speed="13.89" length="14.40" shape="501.60,592.80 501.60,607.20"/>
    </edge>
    <edge id=":A2_10" function="internal">
        <lane id=":A2_10_0" index="0" speed="8.00" length="4.07" shape="501.60,592.80 501.05,596.65 500.96,596.80"/>
    </edge>
    <edge id=":A2_11" function="internal">
        <lane id=":A2_11_0" index="0" speed="3.65" length="1.44" shape="501.60,592.80 500.80,594.00"/>
    </edge>
    <edge id=":A2_17" function="internal">
        <lane id=":A2_17_0" index="0" speed="8.00" length="10.13" shape="500.96,596.80 499.40,599.40 496.65,601.05 492.80,601.60"/>
    </edge>
    <edge id=":A2_18" function="internal">
        <lane id=":A2_18_0" index="0" speed="3.65" length="3.23" shape="500.80,594.00 500.00,594.40 499.20,594.00 498.40,592.80"/>
    </edge>
    <edge id=":A2_12" function="internal">
        <lane id=":A2_12_0" index="0" speed="6.51" length="9.03" shape="492.80,598.40 495.25,598.05 497.00,597.00 498.05,595.25 498.40,592.80"/>
    </edge>
    <edge id=":A2_13" function="internal">
        <lane id=":A2_13_0" index="0" speed="13.89" length="14.40" shape="492.80,598.40 507.20,598.40"/>
    </edge>
    <edge id=":A2_14" function="internal">
        <lane id=":A2_14_0" index="0" speed="8.00" length="14.19" shape="492.80,598.40 496.65,598.95 499.40,600.60 501.05,603.35 501.60,607.20"/>
    </edge>
    <edge id=":A3_0" function="internal">
        <lane id=":A3_0_0" index="0" speed="10.76" length="17.10" shape="498.40,707.20 497.70,704.13 495.58,701.13 492.06,698.20 487.12,695.35"/>
    </edge>
    <edge id=":A3_1" function="internal">
        <lane id=":A3_1_0" index="0" speed="13.89" length="23.57" shape="498.40,707.20 497.51,702.25 495.40,695.91 492.86,689.66 490.72,685.01"/>
    </edge>
    <edge id=":A3_2" function="internal">
        <lane id=":A3_2_0" index="0" speed="13.89" length="24.76" shape="498.40,707.20 498.40,682.44"/>
    </edge>
    <edge id=":A3_3" function="internal">
        <lane id=":A3_3_0" index="0" speed="8.00" length="4.07" shape="498.40,707.20 498.95,703.35 499.04,703.20"/>
    </edge>
    <edge id=":A3_4" function="internal">
        <lane id=":A3_4_0" index="0" speed="3.65" length="1.44" shape="498.40,707.20 499.20,706.00"/>
    </edge>
    <edge id=":A3_23" function="internal">
        <lane id=":A3_23_0" index="0" speed="8.00" length="10.13" shape="499.04,703.20 500.60,700.60 503.35,698.95 507.20,698.40"/>
    </edge>
    <edge id=":A3_24" function="internal">
        <lane id=":A3_24_0" index="0" speed="3.65" length="3.23" shape="499.20,706.00 500.00,705.60 500.80,706.00 501.60,707.20"/>
    </edge>
    <edge id=":A3_5" function="internal">
        <lane id=":A3_5_0" index="0" speed="6.51" length="9.03" shape="507.20,701.60 504.75,701.95 503.00,703.00 501.95,704.75 501.60,707.20"/>
    </edge>
    <edge id=":A3_6" function="internal">
        <lane id=":A3_6_0" index="0" speed="13.89" length="21.13" shape="507.20,701.60 502.58,700.94 496.96,699.31 491.44,697.27 487.12,695.35"/>
    </edge>
    <edge id=":A3_7" function="internal">
        <lane id=":A3_7_0" index="0" speed="12.76" length="24.37" shape="507.20,701.60 503.10,700.56 498.99,697.45 494.86,692.27 490.72,685.01"/>
    </edge>
    <edge id=":A3_8" function="internal">
        <lane id=":A3_8_0" index="0" speed="10.09" length="23.16" shape="507.20,701.60 503.35,700.40 500.60,696.81 498.95,690.83 498.40,682.44"/>
    </edge>
    <edge id=":A3_9" function="internal">
        <lane id=":A3_9_0" index="0" speed="3.65" length="4.67" shape="507.20,701.60 506.00,700.80 505.60,700.00 506.00,699.20 507.20,698.40"/>
    </edge>
    <edge id=":A3_10" function="internal">
        <lane id=":A3_10_0" index="0" speed="8.99" length="18.20" shape="501.60,682.44 501.95,689.43 503.00,694.41 504.75,697.40 507.20,698.40"/>
    </edge>
    <edge id=":A3_11" function="internal">
        <lane id=":A3_11_0" index="0" speed="13.89" length="24.76" shape="501.60,682.44 501.60,707.20"/>
    </edge>
    <edge id=":A3_12" function="internal">
        <lane id=":A3_12_0" index="0" speed="8.98" length="5.69" shape="501.60,682.44 500.89,688.09"/>
    </edge>
    <edge id=":A3_13" function="internal">
        <lane id=":A3_13_0" index="0" speed="6.26" length="2.30" shape="501.60,682.44 500.85,684.62"/>
    </edge>
    <edge id=":A3_14" function="internal">
        <lane id=":A3_14_0" index="0" speed="3.65" length="1.44" shape="501.60,682.44 500.80,683.64"/>
    </edge>
    <edge id=":A3_25" function="internal">
        <lane id=":A3_25_0" index="0" speed="8.98" length="18.87" shape="500.89,688.09 500.69,689.68 497.97,694.74 493.45,696.88 487.12,695.35"/>
    </edge>
    <edge id=":A3_26" function="internal">
        <lane id=":A3_26_0" index="0" speed="6.26" length="12.99" shape="500.85,684.62 500.29,686.25 497.20,688.14 493.59,687.83 490.72,685.01"/>
    </edge>
    <edge id=":A3_27" function="internal">
        <lane id=":A3_27_0" index="0" speed="3.65" length="3.23" shape="500.80,683.64 500.00,684.04 499.20,683.64 498.40,682.44"/>
    </edge>
    <edge id=":A3_15" function="internal">
        <lane id=":A3_15_0" index="0" speed="5.60" length="11.85" shape="493.58,683.58 495.69,687.13 497.20,688.12 498.10,686.56 498.40,682.44"/>
    </edge>
    <edge id=":A3_16" function="internal">
        <lane id=":A3_16_0" index="0" speed="11.84" length="20.87" shape="493.58,683.58 497.21,690.07 500.69,694.70 504.02,697.47 507.20,698.40"/>
    </edge>
    <edge id=":A3_17" function="internal">
        <lane id=":A3_17_0" index="0" speed="13.89" length="25.03" shape="493.58,683.58 495.78,688.46 498.43,695.19 500.66,702.03 501.60,707.20"/>
    </edge>
    <edge id=":A3_18" function="internal">
        <lane id=":A3_18_0" index="0" speed="6.97" length="17.97" shape="493.58,683.58 494.92,688.70 494.10,693.22 491.41,695.86 487.12,695.35"/>
    </edge>
    <edge id=":A3_19" function="internal">
        <lane id=":A3_19_0" index="0" speed="6.01" length="12.90" shape="488.55,692.49 491.64,693.50 493.03,692.59 492.72,689.76 490.72,685.01"/>
    </edge>
    <edge id=":A3_20" function="internal">
        <lane id=":A3_20_0" index="0" speed="7.81" length="18.26" shape="488.55,692.49 492.86,693.71 495.94,692.44 497.78,688.68 498.40,682.44"/>
    </edge>
    <edge id=":A3_21" function="internal">
        <lane id=":A3_21_0" index="0" speed="13.89" length="19.67" shape="488.55,692.49 492.65,694.35 497.68,696.28 502.81,697.79 507.20,698.40"/>
    </edge>
    <edge id=":A3_22" function="internal">
        <lane id=":A3_22_0" index="0" speed="11.77" length="20.63" shape="488.55,692.49 494.26,695.85 498.34,699.43 500.78,703.21 501.60,707.20"/>
    </edge>
    <edge id=":A4_0" function="internal">
        <lane id=":A4_0_0" index="0" speed="13.89" length="16.80" shape="507.20,801.60 503.20,801.25 498.94,800.30 494.78,798.94 491.08,797.33"/>
    </edge>
    <edge id=":A4_1" function="internal">
        <lane id=":A4_1_0" index="0" speed="8.42" length="4.36" shape="507.20,801.60 503.35,800.93 502.99,800.66"/>
    </edge>
    <edge id=":A4_6" function="internal">
        <lane id=":A4_6_0" index="0" speed="8.42" length="11.46" shape="502.99,800.66 500.60,798.91 498.95,795.54 498.40,790.82"/>
    </edge>
    <edge id=":A4_2" function="internal">
        <lane id=":A4_2_0" index="0" speed="7.02" length="10.67" shape="501.60,790.82 501.95,794.14 503.00,796.51 504.75,797.93 507.20,798.40"/>
    </edge>
    <edge id=":A4_3" function="internal">
        <lane id=":A4_3_0" index="0" speed="7.44" length="16.40" shape="501.60,790.82 500.94,795.64 498.97,798.33 495.68,798.89 491.08,797.33"/>
    </edge>
    <edge id=":A4_4" function="internal">
        <lane id=":A4_4_0" index="0" speed="5.74" length="9.18" shape="492.51,794.46 495.09,795.34 496.93,795.03 498.03,793.52 498.40,790.82"/>
    </edge>
    <edge id=":A4_5" function="internal">
        <lane id=":A4_5_0" index="0" speed="13.89" length="15.33" shape="492.51,794.46 495.99,796.02 499.66,797.27 503.42,798.10 507.20,798.40"/>
    </edge>
    <edge id=":B0_0" function="internal">
        <lane id=":B0_0_0" index="0" speed="6.51" length="9.03" shape="598.40,407.20 598.05,404.75 597.00,403.00 595.25,401.95 592.80,401.60"/>
    </edge>
    <edge id=":B0_1" function="internal">
        <lane id=":B0_1_0" index="0" speed="13.89" length="14.40" shape="598.40,407.20 598.40,392.80"/>
    </edge>
    <edge id=":B0_2" function="internal">
        <lane id=":B0_2_0" index="0" speed="8.00" length="4.07" shape="598.40,407.20 598.95,403.35 599.04,403.20"/>
    </edge>
    <edge id=":B0_3" function="internal">
        <lane id=":B0_3_0" index="0" speed="3.65" length="1.44" shape="598.40,407.20 599.20,406.00"/>
    </edge>
    <edge id=":B0_15" function="internal">
        <lane id=":B0_15_0" index="0" speed="8.00" length="10.13" shape="599.04,403.20 600.60,400.60 603.35,398.95 607.20,398.40"/>
    </edge>
    <edge id=":B0_16" function="internal">
        <lane id=":B0_16_0" index="0" speed="3.65" length="3.23" shape="599.20,406.00 600.00,405.60 600.80,406.00 601.60,407.20"/>
    </edge>
    <edge id=":B0_4" function="internal">
        <lane id=":B0_4_0" index="0" speed="6.51" length="9.03" shape="607.20,401.60 604.75,401.95 603.00,403.00 601.95,404.75 601.60,407.20"/>
    </edge>
    <edge id=":B0_5" function="internal">
        <lane id=":B0_5_0" index="0" speed="13.89" length="14.40" shape="607.20,401.60 592.80,401.60"/>
    </edge>
    <edge id=":B0_6" function="internal">
        <lane id=":B0_6_0" index="0" speed="8.00" length="14.19" shape="607.20,401.60 603.35,401.05 600.60,399.40 598.95,396.65 598.40,392.80"/>
    </edge>
    <edge id=":B0_7" function="internal">
        <lane id=":B0_7_0" index="0" speed="3.65" length="4.67" shape="607.20,401.60 606.00,400.80 605.60,400.00 606.00,399.20 607.20,398.40"/>
    </edge>
    <edge id=":B0_8" function="internal">
        <lane id=":B0_8_0" index="0" speed="6.51" length="9.03" shape="601.60,392.80 601.95,395.25 603.00,397.00 604.75,398.05 607.20,398.40"/>
    </edge>
    <edge id=":B0_9" function="internal">
        <lane id=":B0_9_0" index="0" speed="13.89" length="14.40" shape="601.60,392.80 601.60,407.20"/>
    </edge>
    <edge id=":B0_10" function="internal">
        <lane id=":B0_10_0" index="0" speed="8.00" length="4.07" shape="601.60,392.80 601.05,396.65 600.96,396.80"/>
    </edge>
    <edge id=":B0_17" function="internal">
        <lane id=":B0_17_0" index="0" speed="8.00" length="10.13" shape="600.96,396.80 599.40,399.40 596.65,401.05 592.80,401.60"/>
    </edge>
    <edge id=":B0_11" function="internal">
        <lane id=":B0_11_0" index="0" speed="6.51" length="9.03" shape="592.80,398.40 595.25,398.05 597.00,397.00 598.05,395.25 598.40,392.80"/>
    </edge>
    <edge id=":B0_12" function="internal">
        <lane id=":B0_12_0" index="0" speed="13.89" length="14.40" shape="592.80,398.40 607.20,398.40"/>
    </edge>
    <edge id=":B0_13" function="internal">
        <lane id=":B0_13_0" index="0" speed="8.00" length="14.19" shape="592.80,398.40 596.65,398.95 599.40,400.60 601.05,403.35 601.60,407.20"/>
    </edge>
    <edge id=":B0_14" function="internal">
        <lane id=":B0_14_0" index="0" speed="3.65" length="4.67" shape="592.80,398.40 594.00,399.20 594.40,400.00 594.00,400.80 592.80,401.60"/>
    </edge>
    <edge id=":B1_0" function="internal">
        <lane id=":B1_0_0" index="0" speed="6.51" length="9.03" shape="598.40,507.20 598.05,504.75 597.00,503.00 595.25,501.95 592.80,501.60"/>
    </edge>
    <edge id=":B1_1" function="internal">
        <lane id=":B1_1_0" index="0" speed="13.89" length="14.40" shape="598.40,507.20 598.40,492.80"/>
    </edge>
    <edge id=":B1_2" function="internal">
        <lane id=":B1_2_0" index="0" speed="8.00" length="4.07" shape="598.40,507.20 598.95,503.35 599.04,503.20"/>
    </edge>
    <edge id=":B1_3" function="internal">
        <lane id=":B1_3_0" index="0" speed="3.65" length="1.44" shape="598.40,507.20 599.20,506.00"/>
    </edge>
    <edge id=":B1_16" function="internal">
        <lane id=":B1_16_0" index="0" speed="8.00" length="10.13" shape="599.04,503.20 600.60,500.60 603.35,498.95 607.20,498.40"/>
    </edge>
    <edge id=":B1_17" function="internal">
        <lane id=":B1_17_0" index="0" speed="3.65" length="3.23" shape="599.20,506.00 600.00,505.60 600.80,506.00 601.60,507.20"/>
    </edge>
    <edge id=":B1_4" function="internal">
        <lane id=":B1_4_0" index="0" speed="6.51" length="9.03" shape="607.20,501.60 604.75,501.95 603.00,503.00 601.95,504.75 601.60,507.20"/>
    </edge>
    <edge id=":B1_5" function="internal">
        <lane id=":B1_5_0" index="0" speed="13.89" length="14.40" shape="607.20,501.60 592.80,501.60"/>
    </edge>
    <edge id=":B1_6" function="internal">
        <lane id=":B1_6_0" index="0" speed="8.00" length="14.19" shape="607.20,501.60 603.35,501.05 600.60,499.40 598.95,496.65 598.40,492.80"/>
    </edge>
    <edge id=":B1_7" function="internal">
        <lane id=":B1_7_0" index="0" speed="3.65" length="4.67" shape="607.20,501.60 606.00,500.80 605.60,500.00 606.00,499.20 607.20,498.40"/>
    </edge>
    <edge id=":B1_8" function="internal">
        <lane id=":B1_8_0" index="0" speed="6.51" length="9.03" shape="601.60,492.80 601.95,495.25 603.00,497.00 604.75,498.05 607.20,498.40"/>
    </edge>
    <edge id=":B1_9" function="internal">
        <lane id=":B1_9_0" index="0" speed="13.89" length="14.40" shape="601.60,492.80 601.60,507.20"/>
    </edge>
    <edge id=":B1_10" function="internal">
        <lane id=":B1_10_0" index="0" speed="8.00" length="4.07" shape="601.60,492.80 601.05,496.65 600.96,496.80"/>
    </edge>
    <edge id=":B1_11" function="internal">
        <lane id=":B1_11_0" index="0" speed="3.65" length="1.44" shape="601.60,492.80 600.80,494.00"/>
    </edge>
    <edge id=":B1_18" function="internal">
        <lane id=":B1_18_0" index="0" speed="8.00" length="10.13" shape="600.96,496.80 599.40,499.40 596.65,501.05 592.80,501.60"/>
    </edge>
    <edge id=":B1_19" function="internal">
        <lane id=":B1_19_0" index="0" speed="3.65" length="3.23" shape="600.80,494.00 600.00,494.40 599.20,494.00 598.40,492.80"/>
    </edge>
    <edge id=":B1_12" function="internal">
        <lane id=":B1_12_0" index="0" speed="6.51" length="9.03" shape="592.80,498.40 595.25,498.05 597.00,497.00 598.05,495.25 598.40,492.80"/>
    </edge>
    <edge id=":B1_13" function="internal">
        <lane id=":B1_13_0" index="0" speed="13.89" length="14.40" shape="592.80,498.40 607.20,498.40"/>
    </edge>
    <edge id=":B1_14" function="internal">
        <lane id=":B1_14_0" index="0" speed="8.00" length="14.19" shape="592.80,498.40 596.65,498.95 599.40,500.60 601.05,503.35 601.60,507.20"/>
    </edge>
    <edge id=":B1_15" function="internal">
        <lane id=":B1_15_0" index="0" speed="3.65" length="4.67" shape="592.80,498.40 594.00,499.20 594.40,500.00 594.00,500.80 592.80,501.60"/>
    </edge>
    <edge id=":B2_0" function="internal">
        <lane id=":B2_0_0" index="0" speed="6.51" length="9.03" shape="598.40,607.20 598.05,604.75 597.00,603.00 595.25,601.95 592.80,601.60"/>
    </edge>
    <edge id=":B2_1" function="internal">
        <lane id=":B2_1_0" index="0" speed="13.89" length="14.40" shape="598.40,607.20 598.40,592.80"/>
    </edge>
    <edge id=":B2_2" function="internal">
        <lane id=":B2_2_0" index="0" speed="8.00" length="4.07" shape="598.40,607.20 598.95,603.35 599.04,603.20"/>
    </edge>
    <edge id=":B2_3" function="internal">
        <lane id=":B2_3_0" index="0" speed="3.65" length="1.44" shape="598.40,607.20 599.20,606.00"/>
    </edge>
    <edge id=":B2_16" function="internal">
        <lane id=":B2_16_0" index="0" speed="8.00" length="10.13" shape="599.04,603.20 600.60,600.60 603.35,598.95 607.20,598.40"/>
    </edge>
    <edge id=":B2_17" function="internal">
        <lane id=":B2_17_0" index="0" speed="3.65" length="3.23" shape="599.20,606.00 600.00,605.60 600.80,606.00 601.60,607.20"/>
    </edge>
    <edge id=":B2_4" function="internal">
        <lane id=":B2_4_0" index="0" speed="6.51" length="9.03" shape="607.20,601.60 604.75,601.95 603.00,603.00 601.95,604.75 601.60,607.20"/>
    </edge>
    <edge id=":B2_5" function="internal">
        <lane id=":B2_5_0" index="0" speed="13.89" length="14.40" shape="607.20,601.60 592.80,601.60"/>
    </edge>
    <edge id=":B2_6" function="internal">
        <lane id=":B2_6_0" index="0" speed="8.00" length="14.19" shape="607.20,601.60 603.35,601.05 600.60,599.40 598.95,596.65 598.40,592.80"/>
    </edge>
    <edge id=":B2_7" function="internal">
        <lane id=":B2_7_0" index="0" speed="3.65" length="4.67" shape="607.20,601.60 606.00,600.80 605.60,600.00 606.00,599.20 607.20,598.40"/>
    </edge>
    <edge id=":B2_8" function="internal">
        <lane id=":B2_8_0" index="0" speed="6.51" length="9.03" shape="601.60,592.80 601.95,595.25 603.00,597.00 604.75,598.05 607.20,598.40"/>
    </edge>
    <edge id=":B2_9" function="internal">
        <lane id=":B2_9_0" index="0" speed="13.89" length="14.40" shape="601.60,592.80 601.60,607.20"/>
    </edge>
    <edge id=":B2_10" function="internal">
        <lane id=":B2_10_0" index="0" speed="8.00" length="4.07" shape="601.60,592.80 601.05,596.65 600.96,596.80"/>
    </edge>
    <edge id=":B2_11" function="internal">
        <lane id=":B2_11_0" index="0" speed="3.65" length="1.44" shape="601.60,592.80 600.80,594.00"/>
    </edge>
    <edge id=":B2_18" function="internal">
        <lane id=":B2_18_0" index="0" speed="8.00" length="10.13" shape="600.96,596.80 599.40,599.40 596.65,601.05 592.80,601.60"/>
    </edge>
    <edge id=":B2_19" function="internal">
        <lane id=":B2_19_0" index="0" speed="3.65" length="3.23" shape="600.80,594.00 600.00,594.40 599.20,594.00 598.40,592.80"/>
    </edge>
    <edge id=":B2_12" function="internal">
        <lane id=":B2_12_0" index="0" speed="6.51" length="9.03" shape="592.80,598.40 595.25,598.05 597.00,597.00 598.05,595.25 598.40,592.80"/>
    </edge>
    <edge id=":B2_13" function="internal">
        <lane id=":B2_13_0" index="0" speed="13.89" length="14.40" shape="592.80,598.40 607.20,598.40"/>
    </edge>
    <edge id=":B2_14" function="internal">
        <lane id=":B2_14_0" index="0" speed="8.00" length="14.19" shape="592.80,598.40 596.65,598.95 599.40,600.60 601.05,603.35 601.60,607.20"/>
    </edge>
    <edge id=":B2_15" function="internal">
        <lane id=":B2_15_0" index="0" speed="3.65" length="4.67" shape="592.80,598.40 594.00,599.20 594.40,600.00 594.00,600.80 592.80,601.60"/>
    </edge>
    <edge id=":B3_0" function="internal">
        <lane id=":B3_0_0" index="0" speed="6.51" length="9.03" shape="598.40,707.20 598.05,704.75 597.00,703.00 595.25,701.95 592.80,701.60"/>
    </edge>
    <edge id=":B3_1" function="internal">