<connections>
	<connection from="-E30" to="-E56" />
	<connection from="-E30" to="E29" />
	<connection from="-E30" to="-E25" />
	<connection from="A1A0" to="A0B0" />
	<connection from="A1A0" to="E43" />
	<connection from="A1A0" to="E46" />
	<connection from="A1A0" to="E0" />
	<connection from="-E32" to="-E27" />
	<connection from="-E32" to="E28" />
	<connection from="-E38" to="-E43" />
	<connection from="-E38" to="E52" />
	<connection from="-E38" to="E35" />
	<connection from="-E38" to="-E34" />
	<connection from="-E37" to="-E41" />
	<connection from="-E37" to="-E60" />
	<connection from="-E37" to="E48" />
	<connection from="-E39" to="-E38" />
	<connection from="-E39" to="-E45" />
	<connection from="-E34" to="-E33" />
	<connection from="-E33" to="-E32" />
	<connection from="-E36" to="E44" />
	<connection from="-E36" to="-E35" />
	<connection from="-E35" to="-E43" />
	<connection from="-E35" to="E52" />
	<connection from="-E35" to="E38" />
	<connection from="-E35" to="-E34" />
	<connection from="E0D0" to="E42" />
	<connection from="E0D0" to="D0C0" />
	<connection from="E0D0" to="D0D1" />
	<connection from="E0D0" to="D0E0" />
	<connection from="E0D0" to="-E48" />
	<connection from="B3A3" to="E53" />
	<connection from="B3A3" to="A3A4" />
	<connection from="B3A3" to="A3A2" />
	<connection from="B3A3" to="A3B3" />
	<connection from="B3A3" to="E4" />
	<connection from="B4C4" to="C4B4" />
	<connection from="B4C4" to="C4C3" />
	<connection from="B4C4" to="C4D4" />
	<connection from="A2B2" to="B2B1" />
	<connection from="A2B2" to="B2C2" />
	<connection from="A2B2" to="B2A2" />
	<connection from="A2B2" to="B2B3" />
	<connection from="-E41" to="-E40" />
	<connection from="-E41" to="E49" />
	<connection from="-E41" to="-E47" />
	<connection from="-E40" to="E50" />
	<connection from="-E40" to="-E39" />
	<connection from="A1B1" to="B1A1" />
	<connection from="A1B1" to="B1B2" />
	<connection from="A1B1" to="B1B0" />
	<connection from="A1B1" to="B1C1" />
	<connection from="-E43" to="A0A1" />
	<connection from="-E43" to="A0B0" />
	<connection from="-E43" to="E46" />
	<connection from="-E43" to="E0" />
	<connection from="-E42" to="D0C0" />
	<connection from="-E42" to="D0D1" />
	<connection from="-E42" to="D0E0" />
	<connection from="-E42" to="-E48" />
	<connection from="-E49" to="-E40" />
	<connection from="-E49" to="E41" />
	<connection from="-E49" to="-E47" />
	<connection from="-E48" to="-E41" />
	<connection from="-E48" to="-E60" />
	<connection from="-E48" to="E37" />
	<connection from="-E45" to="-E42" />
	<connection from="-E45" to="-E44" />
	<connection from="-E44" to="E36" />
	<connection from="-E44" to="-E35" />
	<connection from="-E47" to="C0B0" />
	<connection from="-E47" to="C0C1" />
	<connection from="-E47" to="C0D0" />
	<connection from="-E46" to="A0A1" />
	<connection from="-E46" to="A0B0" />
	<connection from="-E46" to="E43" />
	<connection from="-E46" to="E0" />
	<connection from="E1E0" to="E0D0" />
	<connection from="E1E0" to="-E37" />
	<connection from="E1E2" to="E2E1" />
	<connection from="E1E2" to="E2D2" />
	<connection from="E1E2" to="E2E3" />
	<connection from="B3B4" to="-E63" />
	<connection from="B3B4" to="B4A4" />
	<connection from="B3B4" to="B4C4" />
	<connection from="B3B4" to="B4B3" />
	<connection from="A1A2" to="A2A3" />
	<connection from="A1A2" to="E3" />
	<connection from="A1A2" to="A2B2" />
	<connection from="A1A2" to="A2A1" />
	<connection from="B3B2" to="B2B1" />
	<connection from="B3B2" to="B2C2" />
	<connection from="B3B2" to="B2A2" />
	<connection from="B3B2" to="B2B3" />
	<connection from="-E52" to="-E43" />
	<connection from="-E52" to="E35" />
	<connection from="-E52" to="E38" />
	<connection from="-E52" to="-E34" />
	<connection from="-E51" to="-E50" />
	<connection from="A0A1" to="A1A0" />
	<connection from="A0A1" to="A1B1" />
	<connection from="A0A1" to="E2" />
	<connection from="A0A1" to="A1A2" />
	<connection from="B2B1" to="B1A1" />
	<connection from="B2B1" to="B1B2" />
	<connection from="B2B1" to="B1B0" />
	<connection from="B2B1" to="B1C1" />
	<connection from="-E54" to="-E53" />
	<connection from="-E54" to="E55" />
	<connection from="-E53" to="A3A4" />
	<connection from="-E53" to="A3A2" />
	<connection from="-E53" to="A3B3" />
	<connection from="-E53" to="E4" />
	<connection from="-E50" to="E40" />
	<connection from="-E50" to="-E39" />
	<connection from="-E59" to="-E9" />
	<connection from="-E59" to="E10" />
	<connection from="-E56" to="-E26" />
	<connection from="-E56" to="E27" />
	<connection from="-E55" to="-E53" />
	<connection from="-E55" to="E54" />
	<connection from="-E58" to="-E16" />
	<connection from="-E58" to="E17" />
	<connection from="-E57" to="E16" />
	<connection from="-E57" to="-E14" />
	<connection from="C4B4" to="-E63" />
	<connection from="C4B4" to="B4A4" />
	<connection from="C4B4" to="B4C4" />
	<connection from="C4B4" to="B4B3" />
	<connection from="B2A2" to="A2A3" />
	<connection from="B2A2" to="E3" />
	<connection from="B2A2" to="A2B2" />
	<connection from="B2A2" to="A2A1" />
	<connection from="B3C3" to="C3C2" />
	<connection from="B3C3" to="C3D3" />
	<connection from="B3C3" to="-E62" />
	<connection from="B3C3" to="E63" />
	<connection from="B3C3" to="C3B3" />
	<connection from="B3C3" to="C3C4" />
	<connection from="-E63" to="C3C2" />
	<connection from="-E63" to="C3D3" />
	<connection from="-E63" to="-E62" />
	<connection from="-E63" to="C3B3" />
	<connection from="-E63" to="C3C4" />
	<connection from="-E62" to="D2C2" />
	<connection from="-E62" to="D2D3" />
	<connection from="-E62" to="D2D1" />
	<connection from="-E62" to="D2E2" />
	<connection from="-E62" to="-E61" />
	<connection from="B1A1" to="A1A0" />
	<connection from="B1A1" to="A1B1" />
	<connection from="B1A1" to="E2" />
	<connection from="B1A1" to="A1A2" />
	<connection from="B2C2" to="C2B2" />
	<connection from="B2C2" to="C2C3" />
	<connection from="B2C2" to="C2C1" />
	<connection from="B2C2" to="C2D2" />
	<connection from="A0B0" to="-E51" />
	<connection from="A0B0" to="B0A0" />
	<connection from="A0B0" to="B0B1" />
	<connection from="A0B0" to="B0C0" />
	<connection from="-E61" to="E1E0" />
	<connection from="-E61" to="E1E2" />
	<connection from="-E61" to="E1D1" />
	<connection from="-E60" to="-E30" />
	<connection from="E0E1" to="E61" />
	<connection from="E0E1" to="E1E0" />
	<connection from="E0E1" to="E1E2" />
	<connection from="E0E1" to="E1D1" />
	<connection from="C4C3" to="C3C2" />
	<connection from="C4C3" to="C3D3" />
	<connection from="C4C3" to="-E62" />
	<connection from="C4C3" to="E63" />
	<connection from="C4C3" to="C3B3" />
	<connection from="C4C3" to="C3C4" />
	<connection from="B2B3" to="B3A3" />
	<connection from="B2B3" to="B3B4" />
	<connection from="B2B3" to="B3B2" />
	<connection from="B2B3" to="B3C3" />
	<connection from="C3C2" to="C2B2" />
	<connection from="C3C2" to="C2C3" />
	<connection from="C3C2" to="C2C1" />
	<connection from="C3C2" to="C2D2" />
	<connection from="B1B2" to="B2B1" />
	<connection from="B1B2" to="B2C2" />
	<connection from="B1B2" to="B2A2" />
	<connection from="B1B2" to="B2B3" />
	<connection from="B1B0" to="-E51" />
	<connection from="B1B0" to="B0A0" />
	<connection from="B1B0" to="B0B1" />
	<connection from="B1B0" to="B0C0" />
	<connection from="E0" to="E6" />
	<connection from="E0" to="-E2" />
	<connection from="E0" to="-E36" />
	<connection from="E1" to="E8" />
	<connection from="E1" to="E13" />
	<connection from="E2" to="E6" />
	<connection from="E2" to="-E0" />
	<connection from="E2" to="-E36" />
	<connection from="E3" to="-E13" />
	<connection from="E4" to="E5" />
	<connection from="E4" to="E12" />
	<connection from="E4" to="-E55" />
	<connection from="E5" to="E15" />
	<connection from="E5" to="-E29" />
	<connection from="E5" to="-E28" />
	<connection from="E6" to="E7" />
	<connection from="E6" to="E11" />
	<connection from="E6" to="E18" />
	<connection from="E7" to="-E10" />
	<connection from="E7" to="E19" />
	<connection from="E7" to="-E57" />
	<connection from="E8" to="-E54" />
	<connection from="E8" to="E9" />
	<connection from="E8" to="E14" />
	<connection from="E8" to="-E12" />
	<connection from="E8" to="-E11" />
	<connection from="E9" to="E10" />
	<connection from="E9" to="E59" />
	<connection from="C3B3" to="B3A3" />
	<connection from="C3B3" to="B3B4" />
	<connection from="C3B3" to="B3B2" />
	<connection from="C3B3" to="B3C3" />
	<connection from="C4D4" to="D4D3" />
	<connection from="C4D4" to="D4E4" />
	<connection from="C4D4" to="D4C4" />
	<connection from="C2B2" to="B2B1" />
	<connection from="C2B2" to="B2C2" />
	<connection from="C2B2" to="B2A2" />
	<connection from="C2B2" to="B2B3" />
	<connection from="C3D3" to="D3C3" />
	<connection from="C3D3" to="D3D4" />
	<connection from="C3D3" to="D3D2" />
	<connection from="C3D3" to="D3E3" />
	<connection from="B0A0" to="A0A1" />
	<connection from="B0A0" to="E43" />
	<connection from="B0A0" to="E46" />
	<connection from="B0A0" to="E0" />
	<connection from="B1C1" to="C1B1" />
	<connection from="B1C1" to="C1C2" />
	<connection from="B1C1" to="C1C0" />
	<connection from="B1C1" to="C1D1" />
	<connection from="C3C4" to="C4B4" />
	<connection from="C3C4" to="C4C3" />
	<connection from="C3C4" to="C4D4" />
	<connection from="C2C3" to="C3C2" />
	<connection from="C2C3" to="C3D3" />
	<connection from="C2C3" to="-E62" />
	<connection from="C2C3" to="E63" />
	<connection from="C2C3" to="C3B3" />
	<connection from="C2C3" to="C3C4" />
	<connection from="D4D3" to="D3C3" />
	<connection from="D4D3" to="D3D4" />
	<connection from="D4D3" to="D3D2" />
	<connection from="D4D3" to="D3E3" />
	<connection from="C2C1" to="C1B1" />
	<connection from="C2C1" to="C1C2" />
	<connection from="C2C1" to="C1C0" />
	<connection from="C2C1" to="C1D1" />
	<connection from="B0B1" to="B1A1" />
	<connection from="B0B1" to="B1B2" />
	<connection from="B0B1" to="B1B0" />
	<connection from="B0B1" to="B1C1" />
	<connection from="D4C4" to="C4B4" />
	<connection from="D4C4" to="C4C3" />
	<connection from="D4C4" to="C4D4" />
	<connection from="D3C3" to="C3C2" />
	<connection from="D3C3" to="C3D3" />
	<connection from="D3C3" to="-E62" />
	<connection from="D3C3" to="E63" />
	<connection from="D3C3" to="C3B3" />
	<connection from="D3C3" to="C3C4" />
	<connection from="D4E4" to="E4E3" />
	<connection from="C1B1" to="B1A1" />
	<connection from="C1B1" to="B1B2" />
	<connection from="C1B1" to="B1B0" />
	<connection from="C1B1" to="B1C1" />
	<connection from="C2D2" to="E62" />
	<connection from="C2D2" to="D2C2" />
	<connection from="C2D2" to="D2D3" />
	<connection from="C2D2" to="D2D1" />
	<connection from="C2D2" to="D2E2" />
	<connection from="C2D2" to="-E61" />
	<connection from="B0C0" to="C0B0" />
	<connection from="B0C0" to="C0C1" />
	<connection from="B0C0" to="C0D0" />
	<connection from="B0C0" to="E47" />
	<connection from="D3D4" to="D4D3" />
	<connection from="D3D4" to="D4E4" />
	<connection from="D3D4" to="D4C4" />
	<connection from="C1C2" to="C2B2" />
	<connection from="C1C2" to="C2C3" />
	<connection from="C1C2" to="C2C1" />
	<connection from="C1C2" to="C2D2" />
	<connection from="D3D2" to="E62" />
	<connection from="D3D2" to="D2C2" />
	<connection from="D3D2" to="D2D3" />
	<connection from="D3D2" to="D2D1" />
	<connection from="D3D2" to="D2E2" />
	<connection from="D3D2" to="-E61" />
	<connection from="C1C0" to="C0B0" />
	<connection from="C1C0" to="C0C1" />
	<connection from="C1C0" to="C0D0" />
	<connection from="C1C0" to="E47" />
	<connection from="E4D4" to="D4D3" />
	<connection from="E4D4" to="D4E4" />
	<connection from="E4D4" to="D4C4" />
	<connection from="D2C2" to="C2B2" />
	<connection from="D2C2" to="C2C3" />
	<connection from="D2C2" to="C2C1" />
	<connection from="D2C2" to="C2D2" />
	<connection from="D3E3" to="E3E2" />
	<connection from="D3E3" to="E3D3" />
	<connection from="D3E3" to="E3E4" />
	<connection from="C0B0" to="-E51" />
	<connection from="C0B0" to="B0A0" />
	<connection from="C0B0" to="B0B1" />
	<connection from="C0B0" to="B0C0" />
	<connection from="C1D1" to="D1C1" />
	<connection from="C1D1" to="D1D2" />
	<connection from="C1D1" to="D1D0" />
	<connection from="C1D1" to="D1E1" />
	<connection from="E11" to="-E8" />
	<connection from="E11" to="-E54" />
	<connection from="E11" to="E9" />
	<connection from="E11" to="E14" />
	<connection from="E11" to="-E12" />
	<connection from="E10" to="E19" />
	<connection from="E10" to="-E57" />
	<connection from="E10" to="-E7" />
	<connection from="E13" to="-E3" />
	<connection from="E12" to="-E8" />
	<connection from="E12" to="-E54" />
	<connection from="E12" to="E9" />
	<connection from="E12" to="E14" />
	<connection from="E12" to="-E11" />
	<connection from="E15" to="E26" />
	<connection from="E15" to="-E22" />
	<connection from="E15" to="-E24" />
	<connection from="E14" to="E57" />
	<connection from="E14" to="E16" />
	<connection from="E17" to="-E20" />
	<connection from="E17" to="E21" />
	<connection from="E16" to="E58" />
	<connection from="E16" to="E17" />
	<connection from="E19" to="E20" />
	<connection from="E19" to="-E59" />
	<connection from="E19" to="-E23" />
	<connection from="E19" to="-E58" />
	<connection from="E18" to="-E52" />
	<connection from="E18" to="E22" />
	<connection from="E18" to="E23" />
	<connection from="D2D3" to="D3C3" />
	<connection from="D2D3" to="D3D4" />
	<connection from="D2D3" to="D3D2" />
	<connection from="D2D3" to="D3E3" />
	<connection from="E20" to="E21" />
	<connection from="E20" to="-E17" />
	<connection from="C0C1" to="C1B1" />
	<connection from="C0C1" to="C1C2" />
	<connection from="C0C1" to="C1C0" />
	<connection from="C0C1" to="C1D1" />
	<connection from="D2D1" to="D1C1" />
	<connection from="D2D1" to="D1D2" />
	<connection from="D2D1" to="D1D0" />
	<connection from="D2D1" to="D1E1" />
	<connection from="E22" to="E26" />
	<connection from="E22" to="-E15" />
	<connection from="E22" to="-E24" />
	<connection from="E21" to="E24" />
	<connection from="E21" to="E25" />
	<connection from="E24" to="E26" />
	<connection from="E24" to="-E15" />
	<connection from="E24" to="-E22" />
	<connection from="E23" to="E20" />
	<connection from="E23" to="-E19" />
	<connection from="E23" to="-E59" />
	<connection from="E23" to="-E58" />
	<connection from="E26" to="E56" />
	<connection from="E26" to="E27" />
	<connection from="E25" to="E30" />
	<connection from="E25" to="-E56" />
	<connection from="E25" to="E29" />
	<connection from="E28" to="E15" />
	<connection from="E28" to="-E29" />
	<connection from="E28" to="-E5" />
	<connection from="E27" to="E32" />
	<connection from="E27" to="E28" />
	<connection from="E29" to="E15" />
	<connection from="E29" to="-E28" />
	<connection from="E29" to="-E5" />
	<connection from="E3D3" to="D3C3" />
	<connection from="E3D3" to="D3D4" />
	<connection from="E3D3" to="D3D2" />
	<connection from="E3D3" to="D3E3" />
	<connection from="E30" to="E60" />
	<connection from="D1C1" to="C1B1" />
	<connection from="D1C1" to="C1C2" />
	<connection from="D1C1" to="C1C0" />
	<connection from="D1C1" to="C1D1" />
	<connection from="D2E2" to="E2E1" />
	<connection from="D2E2" to="E2D2" />
	<connection from="D2E2" to="E2E3" />
	<connection from="E33" to="E34" />
	<connection from="E32" to="E33" />
	<connection from="C0D0" to="E42" />
	<connection from="C0D0" to="D0C0" />
	<connection from="C0D0" to="D0D1" />
	<connection from="C0D0" to="D0E0" />
	<connection from="C0D0" to="-E48" />
	<connection from="E35" to="E44" />
	<connection from="E35" to="E36" />
	<connection from="E34" to="-E43" />
	<connection from="E34" to="E52" />
	<connection from="E34" to="E35" />
	<connection from="E34" to="E38" />
	<connection from="E37" to="E0D0" />
	<connection from="E37" to="E0E1" />
	<connection from="E36" to="E6" />
	<connection from="E36" to="-E0" />
	<connection from="E36" to="-E2" />
	<connection from="E39" to="E40" />
	<connection from="E39" to="E50" />
	<connection from="E38" to="E39" />
	<connection from="E38" to="-E45" />
	<connection from="-E0" to="A0A1" />
	<connection from="-E0" to="A0B0" />
	<connection from="-E0" to="E43" />
	<connection from="-E0" to="E46" />
	<connection from="-E1" to="A4A3" />
	<connection from="-E1" to="A4B4" />
	<connection from="-E2" to="A1A0" />
	<connection from="-E2" to="A1B1" />
	<connection from="-E2" to="A1A2" />
	<connection from="-E3" to="A2A3" />
	<connection from="-E3" to="A2B2" />
	<connection from="-E3" to="A2A1" />
	<connection from="A4A3" to="E53" />
	<connection from="A4A3" to="A3A4" />
	<connection from="A4A3" to="A3A2" />
	<connection from="A4A3" to="A3B3" />
	<connection from="A4A3" to="E4" />
	<connection from="-E4" to="E53" />
	<connection from="-E4" to="A3A4" />
	<connection from="-E4" to="A3A2" />
	<connection from="-E4" to="A3B3" />
	<connection from="-E5" to="E12" />
	<connection from="-E5" to="-E4" />
	<connection from="-E5" to="-E55" />
	<connection from="E4E3" to="E3E2" />
	<connection from="E4E3" to="E3D3" />
	<connection from="E4E3" to="E3E4" />
	<connection from="-E6" to="-E0" />
	<connection from="-E6" to="-E2" />
	<connection from="-E6" to="-E36" />
	<connection from="-E7" to="E11" />
	<connection from="-E7" to="E18" />
	<connection from="-E7" to="-E6" />
	<connection from="-E8" to="E13" />
	<connection from="-E8" to="-E1" />
	<connection from="E40" to="E41" />
	<connection from="E40" to="E49" />
	<connection from="E40" to="-E47" />
	<connection from="-E9" to="-E8" />
	<connection from="-E9" to="-E54" />
	<connection from="-E9" to="E14" />
	<connection from="-E9" to="-E12" />
	<connection from="-E9" to="-E11" />
	<connection from="E42" to="E45" />
	<connection from="E42" to="-E44" />
	<connection from="E41" to="-E60" />
	<connection from="E41" to="E37" />
	<connection from="E41" to="E48" />
	<connection from="D1D2" to="E62" />
	<connection from="D1D2" to="D2C2" />
	<connection from="D1D2" to="D2D3" />
	<connection from="D1D2" to="D2D1" />
	<connection from="D1D2" to="D2E2" />
	<connection from="D1D2" to="-E61" />
	<connection from="E44" to="-E42" />
	<connection from="E44" to="E45" />
	<connection from="E43" to="E52" />
	<connection from="E43" to="E35" />
	<connection from="E43" to="E38" />
	<connection from="E43" to="-E34" />
	<connection from="D1D0" to="E42" />
	<connection from="D1D0" to="D0C0" />
	<connection from="D1D0" to="D0D1" />
	<connection from="D1D0" to="D0E0" />
	<connection from="D1D0" to="-E48" />
	<connection from="E46" to="-E49" />
	<connection from="E45" to="-E38" />
	<connection from="E45" to="E39" />
	<connection from="E48" to="E42" />
	<connection from="E48" to="D0C0" />
	<connection from="E48" to="D0D1" />
	<connection from="E48" to="D0E0" />
	<connection from="E47" to="-E40" />
	<connection from="E47" to="E41" />
	<connection from="E47" to="E49" />
	<connection from="E49" to="-E46" />
	<connection from="A4B4" to="-E63" />
	<connection from="A4B4" to="B4A4" />
	<connection from="A4B4" to="B4C4" />
	<connection from="A4B4" to="B4B3" />
	<connection from="E2D2" to="E62" />
	<connection from="E2D2" to="D2C2" />
	<connection from="E2D2" to="D2D3" />
	<connection from="E2D2" to="D2D1" />
	<connection from="E2D2" to="D2E2" />
	<connection from="E2D2" to="-E61" />
	<connection from="E51" to="B0A0" />
	<connection from="E51" to="B0B1" />
	<connection from="E51" to="B0C0" />
	<connection from="E50" to="E51" />
	<connection from="E53" to="E55" />
	<connection from="E53" to="E54" />
	<connection from="E52" to="E22" />
	<connection from="E52" to="E23" />
	<connection from="E52" to="-E18" />
	<connection from="E55" to="E5" />
	<connection from="E55" to="E12" />
	<connection from="E55" to="-E4" />
	<connection from="E54" to="-E8" />
	<connection from="E54" to="E9" />
	<connection from="E54" to="E14" />
	<connection from="E54" to="-E12" />
	<connection from="E54" to="-E11" />
	<connection from="D0C0" to="C0B0" />
	<connection from="D0C0" to="C0C1" />
	<connection from="D0C0" to="C0D0" />
	<connection from="D0C0" to="E47" />
	<connection from="D1E1" to="E61" />
	<connection from="D1E1" to="E1E0" />
	<connection from="D1E1" to="E1E2" />
	<connection from="D1E1" to="E1D1" />
	<connection from="E57" to="-E10" />
	<connection from="E57" to="E19" />
	<connection from="E57" to="-E7" />
	<connection from="E56" to="E30" />
	<connection from="E56" to="E29" />
	<connection from="E56" to="-E25" />
	<connection from="E59" to="E20" />
	<connection from="E59" to="-E19" />
	<connection from="E59" to="-E23" />
	<connection from="E59" to="-E58" />
	<connection from="E58" to="E20" />
	<connection from="E58" to="-E19" />
	<connection from="E58" to="-E59" />
	<connection from="E58" to="-E23" />
	<connection from="A3A4" to="A4B4" />
	<connection from="A3A4" to="E1" />
	<connection from="E3E2" to="E2E1" />
	<connection from="E3E2" to="E2D2" />
	<connection from="E3E2" to="E2E3" />
	<connection from="A3A2" to="A2A3" />
	<connection from="A3A2" to="E3" />
	<connection from="A3A2" to="A2B2" />
	<connection from="A3A2" to="A2A1" />
	<connection from="E3E4" to="E4D4" />
	<connection from="E60" to="-E41" />
	<connection from="E60" to="E37" />
	<connection from="E60" to="E48" />
	<connection from="E62" to="C3C2" />
	<connection from="E62" to="C3D3" />
	<connection from="E62" to="E63" />
	<connection from="E62" to="C3B3" />
	<connection from="E62" to="C3C4" />
	<connection from="E61" to="E62" />
	<connection from="E61" to="D2C2" />
	<connection from="E61" to="D2D3" />
	<connection from="E61" to="D2D1" />
	<connection from="E61" to="D2E2" />
	<connection from="-E10" to="-E9" />
	<connection from="-E10" to="E59" />
	<connection from="E63" to="B4A4" />
	<connection from="E63" to="B4C4" />
	<connection from="E63" to="B4B3" />
	<connection from="D0D1" to="D1C1" />
	<connection from="D0D1" to="D1D2" />
	<connection from="D0D1" to="D1D0" />
	<connection from="D0D1" to="D1E1" />
	<connection from="-E16" to="E57" />
	<connection from="-E16" to="-E14" />
	<connection from="-E15" to="-E29" />
	<connection from="-E15" to="-E28" />
	<connection from="-E15" to="-E5" />
	<connection from="-E18" to="E7" />
	<connection from="-E18" to="E11" />
	<connection from="-E18" to="-E6" />
	<connection from="-E17" to="-E16" />
	<connection from="-E17" to="E58" />
	<connection from="-E12" to="E5" />
	<connection from="-E12" to="-E4" />
	<connection from="-E12" to="-E55" />
	<connection from="-E11" to="E7" />
	<connection from="-E11" to="E18" />
	<connection from="-E11" to="-E6" />
	<connection from="-E14" to="-E8" />
	<connection from="-E14" to="-E54" />
	<connection from="-E14" to="E9" />
	<connection from="-E14" to="-E12" />
	<connection from="-E14" to="-E11" />
	<connection from="-E13" to="E8" />
	<connection from="-E13" to="-E1" />
	<connection from="E1D1" to="D1C1" />
	<connection from="E1D1" to="D1D2" />
	<connection from="E1D1" to="D1D0" />
	<connection from="E1D1" to="D1E1" />
	<connection from="B4A4" to="A4A3" />
	<connection from="B4A4" to="E1" />
	<connection from="A3B3" to="B3A3" />
	<connection from="A3B3" to="B3B4" />
	<connection from="A3B3" to="B3B2" />
	<connection from="A3B3" to="B3C3" />
	<connection from="-E21" to="-E20" />
	<connection from="-E21" to="-E17" />
	<connection from="-E20" to="-E19" />
	<connection from="-E20" to="-E59" />
	<connection from="-E20" to="-E23" />
	<connection from="-E20" to="-E58" />
	<connection from="-E27" to="E56" />
	<connection from="-E27" to="-E26" />
	<connection from="D0E0" to="E0E1" />
	<connection from="D0E0" to="-E37" />
	<connection from="-E26" to="-E15" />
	<connection from="-E26" to="-E22" />
	<connection from="-E26" to="-E24" />
	<connection from="-E29" to="E30" />
	<connection from="-E29" to="-E56" />
	<connection from="-E29" to="-E25" />
	<connection from="-E28" to="E32" />
	<connection from="-E28" to="-E27" />
	<connection from="-E23" to="-E52" />
	<connection from="-E23" to="E22" />
	<connection from="-E23" to="-E18" />
	<connection from="-E22" to="-E52" />
	<connection from="-E22" to="E23" />
	<connection from="-E22" to="-E18" />
	<connection from="-E25" to="-E21" />
	<connection from="-E25" to="E24" />
	<connection from="-E24" to="-E21" />
	<connection from="-E24" to="E25" />
	<connection from="-E19" to="-E10" />
	<connection from="-E19" to="-E57" />
	<connection from="-E19" to="-E7" />
	<connection from="E2E1" to="E61" />
	<connection from="E2E1" to="E1E0" />
	<connection from="E2E1" to="E1E2" />
	<connection from="E2E1" to="E1D1" />
	<connection from="E2E3" to="E3E2" />
	<connection from="E2E3" to="E3D3" />
	<connection from="E2E3" to="E3E4" />
	<connection from="A2A3" to="E53" />
	<connection from="A2A3" to="A3A4" />
	<connection from="A2A3" to="A3A2" />
	<connection from="A2A3" to="A3B3" />
	<connection from="A2A3" to="E4" />
	<connection from="B4B3" to="B3A3" />
	<connection from="B4B3" to="B3B4" />
	<connection from="B4B3" to="B3B2" />
	<connection from="B4B3" to="B3C3" />
	<connection from="A2A1" to="A1A0" />
	<connection from="A2A1" to="A1B1" />
	<connection from="A2A1" to="E2" />
	<connection from="A2A1" to="A1A2" />
</connections>
